data_image0
_chemical_formula_structural       C2NCNO2C2NCNO2NCHNCHC2NCNO2C2NCNO2NCHNCHC2NCNO2C2NCNO2C2NCNO2C2NCNO2NCHNCHC2NCNO2C2NCNO2NCHNCHC2NCNO2C2NCNO2NCHNCHC2NCNO2C2NCNO2CNCNCNCNCNCNCNCNCNCNCNCNCNCNCNCNCNCNCNCNCNCNCNCNCNCNCNCNCNCNCNCNCNCNCNCNCNCNCNCNCNCNCNCNCNCNCNCN2CHNCHC2NCNO2C2NCNO2NCHNCHC2NCNO2C2NCNO2NCHNCHNCHNCHC2NCNO2C2NCNO2NCHNCHC2NCNO2C2NCNO2NCHNCHC2NCNO2C2NCNO2NCHNCH
_chemical_formula_sum              "C144 N120 O48 H24"
_cell_length_a       43.7548
_cell_length_b       34.3104
_cell_length_c       14.8527
_cell_angle_alpha    90
_cell_angle_beta     90
_cell_angle_gamma    90

_space_group_name_H-M_alt    "P 1"
_space_group_IT_number       1

loop_
  _space_group_symop_operation_xyz
  'x, y, z'

loop_
  _atom_site_type_symbol
  _atom_site_label
  _atom_site_symmetry_multiplicity
  _atom_site_fract_x
  _atom_site_fract_y
  _atom_site_fract_z
  _atom_site_occupancy
  C   C1        1.0  0.00615  0.96470  0.33738  1.0000
  C   C2        1.0  0.00325  0.04773  0.33845  1.0000
  N   N1        1.0  0.03006  0.02778  0.33188  1.0000
  C   C3        1.0  0.03295  0.98806  0.33074  1.0000
  N   N2        1.0  0.06233  0.97162  0.32221  1.0000
  O   O1        1.0  0.07920  0.98222  0.38605  1.0000
  O   O2        1.0  0.07453  0.98217  0.24965  1.0000
  C   C4        1.0  0.50615  0.46488  0.33730  1.0000
  C   C5        1.0  0.50328  0.54793  0.33818  1.0000
  N   N3        1.0  0.53008  0.52797  0.33179  1.0000
  C   C6        1.0  0.53297  0.48824  0.33072  1.0000
  N   N4        1.0  0.56235  0.47180  0.32247  1.0000
  O   O3        1.0  0.57917  0.48243  0.38642  1.0000
  O   O4        1.0  0.57462  0.48231  0.24998  1.0000
  N   N5        1.0  0.08586  0.15804  0.31972  1.0000
  C   C7        1.0  0.11273  0.17850  0.31873  1.0000
  H   H1        1.0  0.13181  0.16617  0.29121  1.0000
  N   N6        1.0  0.92230  0.85433  0.32153  1.0000
  C   C8        1.0  0.89550  0.83372  0.32099  1.0000
  H   H2        1.0  0.87641  0.84575  0.29276  1.0000
  C   C9        1.0  0.94890  0.17326  0.32833  1.0000
  C   C10       1.0  0.89493  0.21925  0.33127  1.0000
  N   N7        1.0  0.92191  0.23233  0.29767  1.0000
  C   C11       1.0  0.94848  0.21183  0.29336  1.0000
  N   N8        1.0  0.97395  0.22924  0.25122  1.0000
  O   O5        1.0  0.97906  0.26236  0.28384  1.0000
  O   O6        1.0  0.96859  0.23379  0.16885  1.0000
  C   C12       1.0  0.05905  0.83824  0.32691  1.0000
  C   C13       1.0  0.11298  0.79225  0.32987  1.0000
  N   N9        1.0  0.08588  0.77897  0.29746  1.0000
  C   C14       1.0  0.05930  0.79948  0.29321  1.0000
  N   N10       1.0  0.03365  0.78192  0.25242  1.0000
  O   O7        1.0  0.02858  0.74901  0.28626  1.0000
  O   O8        1.0  0.03872  0.77686  0.17006  1.0000
  N   N11       1.0  0.58586  0.65839  0.32046  1.0000
  C   C15       1.0  0.61268  0.67894  0.31951  1.0000
  H   H3        1.0  0.63179  0.66667  0.29196  1.0000
  N   N12       1.0  0.42202  0.35471  0.32817  1.0000
  C   C16       1.0  0.39528  0.33395  0.32767  1.0000
  H   H4        1.0  0.37575  0.34670  0.30410  1.0000
  C   C17       1.0  0.44904  0.67359  0.32697  1.0000
  C   C18       1.0  0.39521  0.71974  0.32971  1.0000
  N   N13       1.0  0.42223  0.73282  0.29646  1.0000
  C   C19       1.0  0.44875  0.71220  0.29220  1.0000
  N   N14       1.0  0.47430  0.72953  0.25030  1.0000
  O   O9        1.0  0.47943  0.76266  0.28288  1.0000
  O   O10       1.0  0.46904  0.73406  0.16788  1.0000
  C   C20       1.0  0.55893  0.33802  0.32611  1.0000
  C   C21       1.0  0.61258  0.29157  0.33111  1.0000
  N   N15       1.0  0.58501  0.27770  0.30406  1.0000
  C   C22       1.0  0.55848  0.29823  0.29872  1.0000
  N   N16       1.0  0.53208  0.27966  0.26383  1.0000
  O   O11       1.0  0.53374  0.24305  0.26125  1.0000
  O   O12       1.0  0.52808  0.29074  0.18414  1.0000
  C   C23       1.0  0.36637  0.15973  0.33505  1.0000
  C   C24       1.0  0.38171  0.08014  0.32971  1.0000
  N   N17       1.0  0.40176  0.10912  0.30904  1.0000
  C   C25       1.0  0.39607  0.14785  0.30951  1.0000
  N   N18       1.0  0.41953  0.17391  0.28443  1.0000
  O   O13       1.0  0.44218  0.17036  0.33574  1.0000
  O   O14       1.0  0.42816  0.16729  0.20525  1.0000
  C   C26       1.0  0.64251  0.85227  0.32698  1.0000
  C   C27       1.0  0.62739  0.93188  0.31991  1.0000
  N   N19       1.0  0.60750  0.90294  0.29750  1.0000
  C   C28       1.0  0.61313  0.86419  0.29849  1.0000
  N   N20       1.0  0.58996  0.83808  0.27147  1.0000
  O   O15       1.0  0.56709  0.84100  0.32206  1.0000
  O   O16       1.0  0.58162  0.84513  0.19222  1.0000
  N   N21       1.0  0.66285  0.12865  0.32936  1.0000
  C   C29       1.0  0.65644  0.08977  0.32835  1.0000
  H   H5        1.0  0.67290  0.07029  0.30945  1.0000
  N   N22       1.0  0.34525  0.88307  0.33045  1.0000
  C   C30       1.0  0.35168  0.92197  0.33072  1.0000
  H   H6        1.0  0.33507  0.94164  0.31421  1.0000
  C   C31       1.0  0.86672  0.66002  0.33916  1.0000
  C   C32       1.0  0.88188  0.58035  0.33268  1.0000
  N   N23       1.0  0.90212  0.60938  0.31388  1.0000
  C   C33       1.0  0.89655  0.64814  0.31508  1.0000
  N   N24       1.0  0.92021  0.67419  0.29173  1.0000
  O   O17       1.0  0.94258  0.67031  0.34399  1.0000
  O   O18       1.0  0.92924  0.66789  0.21280  1.0000
  C   C34       1.0  0.14220  0.35209  0.33044  1.0000
  C   C35       1.0  0.12718  0.43176  0.32241  1.0000
  N   N25       1.0  0.10711  0.40274  0.30189  1.0000
  C   C36       1.0  0.11265  0.36398  0.30353  1.0000
  N   N26       1.0  0.08925  0.33786  0.27842  1.0000
  O   O19       1.0  0.06675  0.34103  0.33033  1.0000
  O   O20       1.0  0.08037  0.34462  0.19953  1.0000
  N   N27       1.0  0.16268  0.62892  0.32690  1.0000
  C   C37       1.0  0.15632  0.59002  0.32654  1.0000
  H   H7        1.0  0.17294  0.57046  0.30945  1.0000
  N   N28       1.0  0.84532  0.38292  0.33019  1.0000
  C   C38       1.0  0.85170  0.42183  0.33063  1.0000
  H   H8        1.0  0.83491  0.44154  0.31607  1.0000
  C   C39       1.0  0.53586  0.00329  0.32157  1.0000
  C   C40       1.0  0.47250  0.00719  0.32690  1.0000
  N   N29       1.0  0.48719  0.97292  0.31332  1.0000
  C   C41       1.0  0.51802  0.96912  0.30949  1.0000
  N   N30       1.0  0.53068  0.93192  0.29391  1.0000
  O   O21       1.0  0.52241  0.90840  0.35394  1.0000
  O   O22       1.0  0.52212  0.91887  0.21905  1.0000
  C   C42       1.0  0.03581  0.50332  0.32076  1.0000
  C   C43       1.0  0.97248  0.50725  0.32600  1.0000
  N   N31       1.0  0.98715  0.47293  0.31295  1.0000
  C   C44       1.0  0.01798  0.46911  0.30921  1.0000
  N   N32       1.0  0.03064  0.43185  0.29435  1.0000
  O   O23       1.0  0.02233  0.40857  0.35483  1.0000
  O   O24       1.0  0.02208  0.41853  0.21974  1.0000
  N   N33       1.0  0.26764  0.22173  0.33672  1.0000
  C   C45       1.0  0.23665  0.22280  0.33621  1.0000
  H   H9        1.0  0.22453  0.19750  0.32956  1.0000
  N   N34       1.0  0.74092  0.79001  0.33394  1.0000
  C   C46       1.0  0.77191  0.78895  0.33494  1.0000
  H   H10       1.0  0.78406  0.81420  0.32785  1.0000
  C   C47       1.0  0.72186  0.25247  0.34103  1.0000
  C   C48       1.0  0.78606  0.26021  0.34096  1.0000
  N   N35       1.0  0.76684  0.29131  0.33319  1.0000
  C   C49       1.0  0.73572  0.28958  0.33255  1.0000
  N   N36       1.0  0.71847  0.32398  0.32246  1.0000
  O   O25       1.0  0.72432  0.34745  0.38500  1.0000
  O   O26       1.0  0.72477  0.34024  0.24903  1.0000
  C   C50       1.0  0.28612  0.75924  0.34059  1.0000
  C   C51       1.0  0.22192  0.75156  0.34014  1.0000
  N   N37       1.0  0.24112  0.72045  0.33254  1.0000
  C   C52       1.0  0.27225  0.72214  0.33208  1.0000
  N   N38       1.0  0.28946  0.68771  0.32204  1.0000
  O   O27       1.0  0.28355  0.66424  0.38452  1.0000
  O   O28       1.0  0.28319  0.67147  0.24854  1.0000
  C   C53       1.0  0.97620  0.15027  0.33391  1.0000
  N   N39       1.0  0.97659  0.11050  0.33511  1.0000
  C   C54       1.0  0.00322  0.08951  0.33896  1.0000
  N   N40       1.0  0.03014  0.10992  0.34320  1.0000
  C   C55       1.0  0.03109  0.14969  0.34526  1.0000
  N   N41       1.0  0.00376  0.16838  0.33977  1.0000
  C   C56       1.0  0.03184  0.86134  0.33259  1.0000
  N   N42       1.0  0.03171  0.90104  0.33313  1.0000
  C   C57       1.0  0.00547  0.92273  0.33801  1.0000
  N   N43       1.0  0.97839  0.90267  0.34419  1.0000
  C   C58       1.0  0.97709  0.86287  0.34663  1.0000
  N   N44       1.0  0.00418  0.84368  0.33998  1.0000
  C   C59       1.0  0.47629  0.65052  0.33296  1.0000
  N   N45       1.0  0.47665  0.61074  0.33423  1.0000
  C   C60       1.0  0.50326  0.58973  0.33865  1.0000
  N   N46       1.0  0.53018  0.61013  0.34343  1.0000
  C   C61       1.0  0.53113  0.64990  0.34554  1.0000
  N   N47       1.0  0.50383  0.66861  0.33944  1.0000
  C   C62       1.0  0.53190  0.36153  0.33219  1.0000
  N   N48       1.0  0.53174  0.40124  0.33246  1.0000
  C   C63       1.0  0.50548  0.42290  0.33808  1.0000
  N   N49       1.0  0.47841  0.40282  0.34506  1.0000
  C   C64       1.0  0.47712  0.36300  0.34773  1.0000
  N   N50       1.0  0.50424  0.34406  0.34053  1.0000
  C   C65       1.0  0.39383  0.97231  0.34211  1.0000
  N   N51       1.0  0.37813  0.00697  0.33911  1.0000
  C   C66       1.0  0.39359  0.04168  0.33198  1.0000
  N   N52       1.0  0.42453  0.04034  0.32857  1.0000
  C   C67       1.0  0.44062  0.00714  0.33079  1.0000
  N   N53       1.0  0.42479  0.97374  0.33733  1.0000
  C   C68       1.0  0.61452  0.03935  0.33912  1.0000
  N   N54       1.0  0.63056  0.00503  0.33348  1.0000
  C   C69       1.0  0.61543  0.97029  0.32299  1.0000
  N   N55       1.0  0.58455  0.97147  0.31889  1.0000
  C   C70       1.0  0.56793  0.00417  0.32363  1.0000
  N   N56       1.0  0.58354  0.03764  0.33412  1.0000
  C   C71       1.0  0.89385  0.47231  0.34099  1.0000
  N   N57       1.0  0.87815  0.50701  0.33960  1.0000
  C   C72       1.0  0.89363  0.54178  0.33356  1.0000
  N   N58       1.0  0.92454  0.54040  0.32950  1.0000
  C   C73       1.0  0.94062  0.50720  0.33016  1.0000
  N   N59       1.0  0.92479  0.47378  0.33577  1.0000
  C   C74       1.0  0.11442  0.53950  0.33723  1.0000
  N   N60       1.0  0.13047  0.50511  0.33321  1.0000
  C   C75       1.0  0.11534  0.47027  0.32409  1.0000
  N   N61       1.0  0.08446  0.47148  0.31971  1.0000
  C   C76       1.0  0.06785  0.50420  0.32291  1.0000
  N   N62       1.0  0.08346  0.53773  0.33210  1.0000
  C   C77       1.0  0.13778  0.24458  0.34472  1.0000
  N   N63       1.0  0.16832  0.23586  0.34418  1.0000
  C   C78       1.0  0.19002  0.26478  0.34220  1.0000
  N   N64       1.0  0.18047  0.30238  0.33882  1.0000
  C   C79       1.0  0.15070  0.31240  0.33731  1.0000
  N   N65       1.0  0.13006  0.28296  0.34119  1.0000
  C   C80       1.0  0.87064  0.76766  0.34898  1.0000
  N   N66       1.0  0.84008  0.77618  0.34659  1.0000
  C   C81       1.0  0.81851  0.74713  0.34496  1.0000
  N   N67       1.0  0.82819  0.70955  0.34376  1.0000
  C   C82       1.0  0.85801  0.69970  0.34418  1.0000
  N   N68       1.0  0.87851  0.72930  0.34759  1.0000
  C   C83       1.0  0.87032  0.24650  0.33619  1.0000
  N   N69       1.0  0.83983  0.23776  0.33869  1.0000
  C   C84       1.0  0.81809  0.26658  0.34092  1.0000
  N   N70       1.0  0.82758  0.30430  0.34233  1.0000
  C   C85       1.0  0.85742  0.31442  0.34179  1.0000
  N   N71       1.0  0.87801  0.28490  0.33779  1.0000
  C   C86       1.0  0.13761  0.76506  0.33502  1.0000
  N   N72       1.0  0.16809  0.77390  0.33745  1.0000
  C   C87       1.0  0.18988  0.74516  0.33999  1.0000
  N   N73       1.0  0.18045  0.70742  0.34174  1.0000
  C   C88       1.0  0.15063  0.69724  0.34139  1.0000
  N   N74       1.0  0.12998  0.72665  0.33707  1.0000
  C   C89       1.0  0.63756  0.74504  0.34473  1.0000
  N   N75       1.0  0.66802  0.73613  0.34429  1.0000
  C   C90       1.0  0.69001  0.76462  0.34062  1.0000
  N   N76       1.0  0.68065  0.80230  0.33582  1.0000
  C   C91       1.0  0.65090  0.81259  0.33453  1.0000
  N   N77       1.0  0.63004  0.78343  0.33989  1.0000
  C   C92       1.0  0.37091  0.26712  0.34918  1.0000
  N   N78       1.0  0.34043  0.27586  0.34776  1.0000
  C   C93       1.0  0.31851  0.24725  0.34449  1.0000
  N   N79       1.0  0.32798  0.20957  0.34121  1.0000
  C   C94       1.0  0.35776  0.19940  0.34104  1.0000
  N   N80       1.0  0.37849  0.22872  0.34576  1.0000
  C   C95       1.0  0.37064  0.74697  0.33503  1.0000
  N   N81       1.0  0.34025  0.73801  0.33713  1.0000
  C   C96       1.0  0.31818  0.76637  0.34071  1.0000
  N   N82       1.0  0.32747  0.80420  0.34370  1.0000
  C   C97       1.0  0.35728  0.81461  0.34331  1.0000
  N   N83       1.0  0.37810  0.78539  0.33802  1.0000
  C   C98       1.0  0.63725  0.26445  0.33653  1.0000
  N   N84       1.0  0.66764  0.27353  0.33776  1.0000
  C   C99       1.0  0.68980  0.24528  0.34136  1.0000
  N   N85       1.0  0.68062  0.20742  0.34494  1.0000
  C   C100      1.0  0.65084  0.19690  0.34537  1.0000
  N   N86       1.0  0.62992  0.22599  0.34022  1.0000
  N   N87       1.0  0.97928  0.98477  0.34370  1.0000
  C   C101      1.0  0.97671  0.02436  0.34415  1.0000
  H   H11       1.0  0.95547  0.03655  0.34944  1.0000
  N   N88       1.0  0.47930  0.48497  0.34346  1.0000
  C   C102      1.0  0.47672  0.52457  0.34377  1.0000
  H   H12       1.0  0.45549  0.53677  0.34899  1.0000
  C   C103      1.0  0.05867  0.17217  0.35148  1.0000
  C   C104      1.0  0.11307  0.21746  0.34951  1.0000
  N   N89       1.0  0.08620  0.23072  0.38349  1.0000
  C   C105      1.0  0.05946  0.21056  0.38749  1.0000
  N   N90       1.0  0.03417  0.22817  0.43011  1.0000
  O   O29       1.0  0.02936  0.26152  0.39830  1.0000
  O   O30       1.0  0.03959  0.23226  0.51256  1.0000
  C   C106      1.0  0.94946  0.84057  0.35427  1.0000
  C   C107      1.0  0.89523  0.79498  0.35326  1.0000
  N   N91       1.0  0.92207  0.78211  0.38817  1.0000
  C   C108      1.0  0.94873  0.80245  0.39180  1.0000
  N   N92       1.0  0.97404  0.78523  0.43522  1.0000
  O   O31       1.0  0.97912  0.75183  0.40411  1.0000
  O   O32       1.0  0.96850  0.78139  0.51767  1.0000
  N   N93       1.0  0.92161  0.15935  0.35973  1.0000
  C   C109      1.0  0.89493  0.18018  0.36128  1.0000
  H   H13       1.0  0.87571  0.16794  0.38821  1.0000
  N   N94       1.0  0.08644  0.85233  0.35710  1.0000
  C   C110      1.0  0.11311  0.83150  0.35851  1.0000
  H   H14       1.0  0.13240  0.84386  0.38473  1.0000
  C   C111      1.0  0.55866  0.67245  0.35217  1.0000
  C   C112      1.0  0.61290  0.71793  0.35012  1.0000
  N   N95       1.0  0.58603  0.73115  0.38406  1.0000
  C   C113      1.0  0.55935  0.71085  0.38813  1.0000
  N   N96       1.0  0.53401  0.72832  0.43082  1.0000
  O   O33       1.0  0.52914  0.76171  0.39928  1.0000
  O   O34       1.0  0.53943  0.73232  0.51330  1.0000
  C   C114      1.0  0.44967  0.34024  0.35524  1.0000
  C   C115      1.0  0.39555  0.29435  0.35381  1.0000
  N   N97       1.0  0.42292  0.28065  0.38290  1.0000
  C   C116      1.0  0.44955  0.30100  0.38638  1.0000
  N   N98       1.0  0.47550  0.28227  0.42265  1.0000
  O   O35       1.0  0.48055  0.25068  0.38259  1.0000
  O   O36       1.0  0.47118  0.27457  0.50430  1.0000
  N   N99       1.0  0.42170  0.65970  0.35797  1.0000
  C   C117      1.0  0.39508  0.68062  0.35936  1.0000
  H   H15       1.0  0.37580  0.66841  0.38604  1.0000
  N   N100      1.0  0.58673  0.35263  0.35133  1.0000
  C   C118      1.0  0.61328  0.33159  0.35324  1.0000
  H   H16       1.0  0.63296  0.34451  0.37507  1.0000
  N   N101      1.0  0.34563  0.13106  0.35425  1.0000
  C   C119      1.0  0.35188  0.09213  0.35200  1.0000
  H   H17       1.0  0.33542  0.07244  0.36958  1.0000
  N   N102      1.0  0.66308  0.88087  0.34806  1.0000
  C   C120      1.0  0.65693  0.91981  0.34509  1.0000
  H   H18       1.0  0.67319  0.93946  0.36451  1.0000
  C   C121      1.0  0.64214  0.15714  0.34994  1.0000
  C   C122      1.0  0.62642  0.07761  0.34782  1.0000
  N   N103      1.0  0.60628  0.10626  0.37000  1.0000
  C   C123      1.0  0.61227  0.14496  0.37337  1.0000
  N   N104      1.0  0.58883  0.17084  0.39951  1.0000
  O   O37       1.0  0.56638  0.16820  0.34715  1.0000
  O   O38       1.0  0.57983  0.16315  0.47781  1.0000
  C   C124      1.0  0.36610  0.85434  0.34799  1.0000
  C   C125      1.0  0.38188  0.93395  0.34837  1.0000
  N   N105      1.0  0.40213  0.90500  0.36739  1.0000
  C   C126      1.0  0.39621  0.86629  0.36929  1.0000
  N   N106      1.0  0.41996  0.84027  0.39211  1.0000
  O   O39       1.0  0.44185  0.84336  0.33783  1.0000
  O   O40       1.0  0.42978  0.84730  0.46989  1.0000
  N   N107      1.0  0.84581  0.63132  0.35659  1.0000
  C   C127      1.0  0.85198  0.59238  0.35392  1.0000
  H   H19       1.0  0.83534  0.57267  0.36988  1.0000
  N   N108      1.0  0.16293  0.38075  0.34973  1.0000
  C   C128      1.0  0.15683  0.41970  0.34636  1.0000
  H   H20       1.0  0.17327  0.43939  0.36414  1.0000
  C   C129      1.0  0.14181  0.65751  0.34533  1.0000
  C   C130      1.0  0.12620  0.57790  0.34475  1.0000
  N   N109      1.0  0.10588  0.60667  0.36465  1.0000
  C   C131      1.0  0.11177  0.64541  0.36709  1.0000
  N   N110      1.0  0.08812  0.67138  0.39099  1.0000
  O   O41       1.0  0.06608  0.66849  0.33725  1.0000
  O   O42       1.0  0.07855  0.66410  0.46891  1.0000
  C   C132      1.0  0.86634  0.35414  0.34555  1.0000
  C   C133      1.0  0.88202  0.43382  0.34630  1.0000
  N   N111      1.0  0.90245  0.40482  0.36315  1.0000
  C   C134      1.0  0.89662  0.36608  0.36462  1.0000
  N   N112      1.0  0.92061  0.34004  0.38502  1.0000
  O   O43       1.0  0.94201  0.34345  0.32919  1.0000
  O   O44       1.0  0.93109  0.34676  0.46219  1.0000
  N   N113      1.0  0.52104  0.03765  0.33465  1.0000
  C   C135      1.0  0.49031  0.04110  0.33696  1.0000
  H   H21       1.0  0.48081  0.06789  0.34803  1.0000
  N   N114      1.0  0.02100  0.53773  0.33328  1.0000
  C   C136      1.0  0.99029  0.54119  0.33560  1.0000
  H   H22       1.0  0.98079  0.56803  0.34618  1.0000
  C   C137      1.0  0.28637  0.25347  0.34445  1.0000
  C   C138      1.0  0.22211  0.25919  0.34357  1.0000
  N   N115      1.0  0.24075  0.29086  0.35180  1.0000
  C   C139      1.0  0.27188  0.29014  0.35298  1.0000
  N   N116      1.0  0.28852  0.32499  0.36353  1.0000
  O   O45       1.0  0.28235  0.34836  0.30106  1.0000
  O   O46       1.0  0.28179  0.34097  0.43697  1.0000
  C   C140      1.0  0.72215  0.75833  0.34203  1.0000
  C   C141      1.0  0.78641  0.75263  0.34446  1.0000
  N   N117      1.0  0.76772  0.72101  0.35306  1.0000
  C   C142      1.0  0.73659  0.72174  0.35271  1.0000
  N   N118      1.0  0.71988  0.68698  0.36390  1.0000
  O   O47       1.0  0.72637  0.66314  0.30270  1.0000
  O   O48       1.0  0.72620  0.67157  0.43829  1.0000
  N   N119      1.0  0.74116  0.22131  0.34833  1.0000
  C   C143      1.0  0.77214  0.22338  0.34841  1.0000
  H   H23       1.0  0.78472  0.19843  0.35456  1.0000
  N   N120      1.0  0.26683  0.79043  0.34772  1.0000
  C   C144      1.0  0.23585  0.78838  0.34766  1.0000
  H   H24       1.0  0.22327  0.81334  0.35368  1.0000
