data_image0
_chemical_formula_structural       C2NCOCH3C2NCOCH3C2NCOCH3C2NCOCH3C2NCOCH3C2NCOCH3NCHNCHNCHNCHNCHNCHC2NCOCH3C2NCOCH3C2NCOCH3C2NCOCH3C2NCOCH3C2NCOCH3C6H3C6H3C6H3C6H3C6H3C6H3C6H3C6H3C6H3C6H3C6H3C6H3NCHNCHNCHNCHNCHNCHC2NCOCH3C2NCOCH3C2NCOCH3C2NCOCH3C2NCOCH3C2NCOCH3NCHNCHNCHNCHNCHNCH
_chemical_formula_sum              "C162 N36 O18 H108"
_cell_length_a       39.4693
_cell_length_b       39.4692
_cell_length_c       14.8108
_cell_angle_alpha    90
_cell_angle_beta     90
_cell_angle_gamma    120

_space_group_name_H-M_alt    "P 1"
_space_group_IT_number       1

loop_
  _space_group_symop_operation_xyz
  'x, y, z'

loop_
  _atom_site_type_symbol
  _atom_site_label
  _atom_site_symmetry_multiplicity
  _atom_site_fract_x
  _atom_site_fract_y
  _atom_site_fract_z
  _atom_site_occupancy
  C   C1        1.0  0.20490  0.46486  0.33193  1.0000
  C   C2        1.0  0.27485  0.46166  0.33696  1.0000
  N   N1        1.0  0.27149  0.48910  0.28847  1.0000
  C   C3        1.0  0.23842  0.49144  0.28175  1.0000
  O   O1        1.0  0.24008  0.52073  0.22925  1.0000
  C   C4        1.0  0.22838  0.50889  0.13743  1.0000
  H   H1        1.0  0.23061  0.53388  0.10073  1.0000
  H   H2        1.0  0.19807  0.48505  0.13349  1.0000
  H   H3        1.0  0.24751  0.50001  0.10453  1.0000
  C   C5        1.0  0.56983  0.76195  0.33222  1.0000
  C   C6        1.0  0.57303  0.83510  0.33721  1.0000
  N   N2        1.0  0.54562  0.80431  0.28866  1.0000
  C   C7        1.0  0.54330  0.76891  0.28192  1.0000
  O   O2        1.0  0.51401  0.74129  0.22939  1.0000
  C   C8        1.0  0.52587  0.74144  0.13758  1.0000
  H   H4        1.0  0.50089  0.71869  0.10085  1.0000
  H   H5        1.0  0.54971  0.73496  0.13366  1.0000
  H   H6        1.0  0.53475  0.76945  0.10469  1.0000
  C   C9        1.0  0.27274  0.82984  0.33207  1.0000
  C   C10       1.0  0.19959  0.75989  0.33701  1.0000
  N   N3        1.0  0.23039  0.76326  0.28851  1.0000
  C   C11       1.0  0.26579  0.79634  0.28182  1.0000
  O   O3        1.0  0.29342  0.79468  0.22929  1.0000
  C   C12       1.0  0.29328  0.80640  0.13749  1.0000
  H   H7        1.0  0.31604  0.80418  0.10077  1.0000
  H   H8        1.0  0.29975  0.83671  0.13358  1.0000
  H   H9        1.0  0.26528  0.78727  0.10459  1.0000
  C   C13       1.0  0.82684  0.57295  0.33213  1.0000
  C   C14       1.0  0.75688  0.57615  0.33714  1.0000
  N   N4        1.0  0.76026  0.54872  0.28860  1.0000
  C   C15       1.0  0.79333  0.54640  0.28187  1.0000
  O   O4        1.0  0.79167  0.51711  0.22936  1.0000
  C   C16       1.0  0.80338  0.52896  0.13755  1.0000
  H   H10       1.0  0.80115  0.50398  0.10083  1.0000
  H   H11       1.0  0.83369  0.55280  0.13363  1.0000
  H   H12       1.0  0.78426  0.53784  0.10465  1.0000
  C   C17       1.0  0.46182  0.27585  0.33194  1.0000
  C   C18       1.0  0.45864  0.20270  0.33697  1.0000
  N   N5        1.0  0.48608  0.23351  0.28847  1.0000
  C   C19       1.0  0.48840  0.26891  0.28177  1.0000
  O   O5        1.0  0.51769  0.29654  0.22927  1.0000
  C   C20       1.0  0.50585  0.29640  0.13745  1.0000
  H   H13       1.0  0.53083  0.31916  0.10074  1.0000
  H   H14       1.0  0.48201  0.30287  0.13351  1.0000
  H   H15       1.0  0.49697  0.26839  0.10455  1.0000
  C   C21       1.0  0.75892  0.20797  0.33204  1.0000
  C   C22       1.0  0.83208  0.27791  0.33700  1.0000
  N   N6        1.0  0.80127  0.27455  0.28850  1.0000
  C   C23       1.0  0.76587  0.24148  0.28180  1.0000
  O   O6        1.0  0.73824  0.24315  0.22931  1.0000
  C   C24       1.0  0.73836  0.23144  0.13750  1.0000
  H   H16       1.0  0.71561  0.23367  0.10081  1.0000
  H   H17       1.0  0.73187  0.20112  0.13357  1.0000
  H   H18       1.0  0.76637  0.25056  0.10458  1.0000
  N   N7        1.0  0.16526  0.61258  0.31095  1.0000
  C   C25       1.0  0.16868  0.57996  0.30834  1.0000
  H   H19       1.0  0.18775  0.57875  0.26361  1.0000
  N   N8        1.0  0.42217  0.57458  0.31075  1.0000
  C   C26       1.0  0.45480  0.61061  0.30812  1.0000
  H   H20       1.0  0.45598  0.63095  0.26363  1.0000
  N   N9        1.0  0.46008  0.86946  0.31099  1.0000
  C   C27       1.0  0.42404  0.86606  0.30837  1.0000
  H   H21       1.0  0.40376  0.84698  0.26366  1.0000
  N   N10       1.0  0.86648  0.42524  0.31084  1.0000
  C   C28       1.0  0.86310  0.45787  0.30819  1.0000
  H   H22       1.0  0.84395  0.45907  0.26367  1.0000
  N   N11       1.0  0.60955  0.46317  0.31102  1.0000
  C   C29       1.0  0.57692  0.42714  0.30838  1.0000
  H   H23       1.0  0.57571  0.40685  0.26367  1.0000
  N   N12       1.0  0.57155  0.16829  0.31071  1.0000
  C   C30       1.0  0.60757  0.17168  0.30806  1.0000
  H   H24       1.0  0.62792  0.19085  0.26358  1.0000
  C   C31       1.0  0.97740  0.36491  0.33964  1.0000
  C   C32       1.0  0.05964  0.40576  0.34193  1.0000
  N   N13       1.0  0.03895  0.40113  0.26495  1.0000
  C   C33       1.0  0.99926  0.37997  0.25917  1.0000
  O   O7        1.0  0.98207  0.38149  0.18032  1.0000
  C   C34       1.0  0.97388  0.34960  0.12068  1.0000
  H   H25       1.0  0.96027  0.35297  0.05984  1.0000
  H   H26       1.0  0.95351  0.32142  0.15131  1.0000
  H   H27       1.0  0.00066  0.34981  0.10091  1.0000
  C   C35       1.0  0.66979  0.63438  0.33969  1.0000
  C   C36       1.0  0.62904  0.67589  0.34204  1.0000
  N   N14       1.0  0.63310  0.65927  0.26535  1.0000
  C   C37       1.0  0.65421  0.64069  0.25942  1.0000
  O   O8        1.0  0.65199  0.62145  0.18093  1.0000
  C   C38       1.0  0.68360  0.64458  0.12014  1.0000
  H   H28       1.0  0.67967  0.62722  0.05966  1.0000
  H   H29       1.0  0.71189  0.65226  0.14994  1.0000
  H   H30       1.0  0.68359  0.67121  0.09993  1.0000
  C   C39       1.0  0.40029  0.05737  0.33967  1.0000
  C   C40       1.0  0.35888  0.97510  0.34190  1.0000
  N   N15       1.0  0.37501  0.99580  0.26498  1.0000
  C   C41       1.0  0.39354  0.03548  0.25923  1.0000
  O   O9        1.0  0.41230  0.05266  0.18040  1.0000
  C   C42       1.0  0.38864  0.06086  0.12065  1.0000
  H   H31       1.0  0.40564  0.07445  0.05984  1.0000
  H   H32       1.0  0.38082  0.08123  0.15119  1.0000
  H   H33       1.0  0.36207  0.03408  0.10085  1.0000
  C   C43       1.0  0.05425  0.67278  0.33964  1.0000
  C   C44       1.0  0.97211  0.63208  0.34188  1.0000
  N   N16       1.0  0.99276  0.63615  0.26512  1.0000
  C   C45       1.0  0.03245  0.65727  0.25924  1.0000
  O   O10       1.0  0.04951  0.65509  0.18079  1.0000
  C   C46       1.0  0.05801  0.68673  0.12005  1.0000
  H   H34       1.0  0.07147  0.68282  0.05960  1.0000
  H   H35       1.0  0.07859  0.71500  0.14993  1.0000
  H   H36       1.0  0.03137  0.68671  0.09978  1.0000
  C   C47       1.0  0.36186  0.40333  0.33947  1.0000
  C   C48       1.0  0.40270  0.36198  0.34196  1.0000
  N   N17       1.0  0.39822  0.37811  0.26494  1.0000
  C   C49       1.0  0.37706  0.39664  0.25908  1.0000
  O   O11       1.0  0.37870  0.41545  0.18029  1.0000
  C   C50       1.0  0.34687  0.39182  0.12042  1.0000
  H   H37       1.0  0.35034  0.40887  0.05964  1.0000
  H   H38       1.0  0.31867  0.38401  0.15088  1.0000
  H   H39       1.0  0.34708  0.36525  0.10058  1.0000
  C   C51       1.0  0.63130  0.98044  0.33983  1.0000
  C   C52       1.0  0.67283  0.06272  0.34195  1.0000
  N   N18       1.0  0.65617  0.04195  0.26535  1.0000
  C   C53       1.0  0.63759  0.00226  0.25945  1.0000
  O   O12       1.0  0.61835  0.98522  0.18098  1.0000
  C   C54       1.0  0.64148  0.97671  0.12023  1.0000
  H   H40       1.0  0.62412  0.96326  0.05977  1.0000
  H   H41       1.0  0.64916  0.95612  0.15009  1.0000
  H   H42       1.0  0.66811  0.00334  0.09999  1.0000
  C   C55       1.0  0.14014  0.50977  0.35446  1.0000
  C   C56       1.0  0.10291  0.47567  0.35357  1.0000
  C   C57       1.0  0.09838  0.43795  0.34619  1.0000
  C   C58       1.0  0.13227  0.43441  0.33973  1.0000
  C   C59       1.0  0.17031  0.46797  0.33900  1.0000
  C   C60       1.0  0.17336  0.50525  0.34756  1.0000
  H   H43       1.0  0.12909  0.40715  0.33304  1.0000
  H   H44       1.0  0.20040  0.52974  0.35234  1.0000
  H   H45       1.0  0.07838  0.47836  0.35666  1.0000
  C   C61       1.0  0.52497  0.65227  0.35434  1.0000
  C   C62       1.0  0.55909  0.64917  0.35343  1.0000
  C   C63       1.0  0.59680  0.68238  0.34608  1.0000
  C   C64       1.0  0.60033  0.71982  0.33998  1.0000
  C   C65       1.0  0.56675  0.72426  0.33915  1.0000
  C   C66       1.0  0.52948  0.69002  0.34757  1.0000
  H   H46       1.0  0.62758  0.74391  0.33333  1.0000
  H   H47       1.0  0.50497  0.69254  0.35235  1.0000
  H   H48       1.0  0.55642  0.62196  0.35648  1.0000
  C   C67       1.0  0.38241  0.89461  0.35449  1.0000
  C   C68       1.0  0.38554  0.93184  0.35360  1.0000
  C   C69       1.0  0.35234  0.93636  0.34621  1.0000
  C   C70       1.0  0.31490  0.90247  0.33989  1.0000
  C   C71       1.0  0.31043  0.86443  0.33912  1.0000
  C   C72       1.0  0.34466  0.86138  0.34763  1.0000
  H   H49       1.0  0.29082  0.90564  0.33311  1.0000
  H   H50       1.0  0.34213  0.83435  0.35240  1.0000
  H   H51       1.0  0.41275  0.95637  0.35658  1.0000
  C   C73       1.0  0.89161  0.52804  0.35444  1.0000
  C   C74       1.0  0.92884  0.56215  0.35353  1.0000
  C   C75       1.0  0.93336  0.59987  0.34609  1.0000
  C   C76       1.0  0.89946  0.60341  0.33989  1.0000
  C   C77       1.0  0.86143  0.56985  0.33915  1.0000
  C   C78       1.0  0.85838  0.53257  0.34765  1.0000
  H   H52       1.0  0.90264  0.63067  0.33318  1.0000
  H   H53       1.0  0.83135  0.50807  0.35241  1.0000
  H   H54       1.0  0.95336  0.55946  0.35652  1.0000
  C   C79       1.0  0.50673  0.38552  0.35449  1.0000
  C   C80       1.0  0.47262  0.38864  0.35366  1.0000
  C   C81       1.0  0.43490  0.35545  0.34625  1.0000
  C   C82       1.0  0.43136  0.31801  0.33981  1.0000
  C   C83       1.0  0.46493  0.31354  0.33904  1.0000
  C   C84       1.0  0.50221  0.34777  0.34761  1.0000
  H   H55       1.0  0.40411  0.29393  0.33305  1.0000
  H   H56       1.0  0.52671  0.34524  0.35232  1.0000
  H   H57       1.0  0.47531  0.41585  0.35669  1.0000
  C   C85       1.0  0.64924  0.14317  0.35429  1.0000
  C   C86       1.0  0.64613  0.10594  0.35343  1.0000
  C   C87       1.0  0.67934  0.10144  0.34610  1.0000
  C   C88       1.0  0.71677  0.13534  0.33983  1.0000
  C   C89       1.0  0.72122  0.17337  0.33905  1.0000
  C   C90       1.0  0.68698  0.17640  0.34750  1.0000
  H   H58       1.0  0.74086  0.13218  0.33322  1.0000
  H   H59       1.0  0.68950  0.20343  0.35224  1.0000
  H   H60       1.0  0.61892  0.08141  0.35646  1.0000
  C   C91       1.0  0.50393  0.13851  0.35692  1.0000
  C   C92       1.0  0.47008  0.10112  0.35297  1.0000
  C   C93       1.0  0.43220  0.09620  0.34620  1.0000
  C   C94       1.0  0.42815  0.12984  0.34295  1.0000
  C   C95       1.0  0.46148  0.16802  0.34355  1.0000
  C   C96       1.0  0.49902  0.17152  0.34967  1.0000
  H   H61       1.0  0.40078  0.12638  0.33637  1.0000
  H   H62       1.0  0.52342  0.19877  0.35226  1.0000
  H   H63       1.0  0.47306  0.07677  0.35276  1.0000
  C   C97       1.0  0.64741  0.53078  0.35723  1.0000
  C   C98       1.0  0.64383  0.56460  0.35320  1.0000
  C   C99       1.0  0.67676  0.60250  0.34628  1.0000
  C   C100      1.0  0.71447  0.60658  0.34310  1.0000
  C   C101      1.0  0.71935  0.57328  0.34378  1.0000
  C   C102      1.0  0.68532  0.53571  0.35000  1.0000
  H   H64       1.0  0.73836  0.63396  0.33646  1.0000
  H   H65       1.0  0.68821  0.51133  0.35258  1.0000
  H   H66       1.0  0.61648  0.56160  0.35303  1.0000
  C   C103      1.0  0.89624  0.38739  0.35706  1.0000
  C   C104      1.0  0.93364  0.39094  0.35305  1.0000
  C   C105      1.0  0.93857  0.35799  0.34627  1.0000
  C   C106      1.0  0.90493  0.32029  0.34297  1.0000
  C   C107      1.0  0.86675  0.31543  0.34360  1.0000
  C   C108      1.0  0.86324  0.34948  0.34975  1.0000
  H   H67       1.0  0.90839  0.29639  0.33635  1.0000
  H   H68       1.0  0.83599  0.34661  0.35242  1.0000
  H   H69       1.0  0.95799  0.41827  0.35289  1.0000
  C   C109      1.0  0.52769  0.89923  0.35721  1.0000
  C   C110      1.0  0.56151  0.93663  0.35319  1.0000
  C   C111      1.0  0.59941  0.94158  0.34632  1.0000
  C   C112      1.0  0.60349  0.90796  0.34328  1.0000
  C   C113      1.0  0.57018  0.86977  0.34380  1.0000
  C   C114      1.0  0.53261  0.86624  0.34992  1.0000
  H   H70       1.0  0.63086  0.91144  0.33655  1.0000
  H   H71       1.0  0.50823  0.83898  0.35257  1.0000
  H   H72       1.0  0.55851  0.96097  0.35305  1.0000
  C   C115      1.0  0.38432  0.50696  0.35695  1.0000
  C   C116      1.0  0.38788  0.47312  0.35294  1.0000
  C   C117      1.0  0.35493  0.43524  0.34612  1.0000
  C   C118      1.0  0.31723  0.43117  0.34299  1.0000
  C   C119      1.0  0.31237  0.46450  0.34354  1.0000
  C   C120      1.0  0.34641  0.50205  0.34968  1.0000
  H   H73       1.0  0.29333  0.40381  0.33623  1.0000
  H   H74       1.0  0.34355  0.52644  0.35232  1.0000
  H   H75       1.0  0.41522  0.47611  0.35266  1.0000
  C   C121      1.0  0.13549  0.65042  0.35717  1.0000
  C   C122      1.0  0.09808  0.64683  0.35320  1.0000
  C   C123      1.0  0.09312  0.67976  0.34624  1.0000
  C   C124      1.0  0.12673  0.71747  0.34307  1.0000
  C   C125      1.0  0.16493  0.72236  0.34367  1.0000
  C   C126      1.0  0.16847  0.68834  0.34987  1.0000
  H   H76       1.0  0.12324  0.74135  0.33634  1.0000
  H   H77       1.0  0.19573  0.69122  0.35247  1.0000
  H   H78       1.0  0.07375  0.61948  0.35301  1.0000
  N   N19       1.0  0.20783  0.43668  0.37889  1.0000
  C   C127      1.0  0.24063  0.43346  0.38173  1.0000
  H   H79       1.0  0.24077  0.41233  0.42127  1.0000
  N   N20       1.0  0.59800  0.79305  0.37924  1.0000
  C   C128      1.0  0.60119  0.82906  0.38215  1.0000
  H   H80       1.0  0.62235  0.85036  0.42158  1.0000
  N   N21       1.0  0.24163  0.82690  0.37906  1.0000
  C   C129      1.0  0.20561  0.79409  0.38187  1.0000
  H   H81       1.0  0.18434  0.79394  0.42144  1.0000
  N   N22       1.0  0.82389  0.60110  0.37919  1.0000
  C   C130      1.0  0.79107  0.60428  0.38211  1.0000
  H   H82       1.0  0.79092  0.62543  0.42156  1.0000
  N   N23       1.0  0.43366  0.24474  0.37893  1.0000
  C   C131      1.0  0.43045  0.20872  0.38178  1.0000
  H   H83       1.0  0.40932  0.18745  0.42133  1.0000
  N   N24       1.0  0.79002  0.21091  0.37906  1.0000
  C   C132      1.0  0.82603  0.24372  0.38196  1.0000
  H   H84       1.0  0.84732  0.24386  0.42139  1.0000
  C   C133      1.0  0.13934  0.61645  0.36463  1.0000
  C   C134      1.0  0.14303  0.54716  0.36094  1.0000
  N   N25       1.0  0.11779  0.55144  0.41575  1.0000
  C   C135      1.0  0.11551  0.58452  0.42203  1.0000
  O   O13       1.0  0.08880  0.58443  0.48097  1.0000
  C   C136      1.0  0.10494  0.59883  0.56898  1.0000
  H   H85       1.0  0.08184  0.59777  0.61137  1.0000
  H   H86       1.0  0.12879  0.62918  0.56609  1.0000
  H   H87       1.0  0.11539  0.58069  0.60043  1.0000
  C   C137      1.0  0.41831  0.54477  0.36434  1.0000
  C   C138      1.0  0.48759  0.61777  0.36076  1.0000
  N   N26       1.0  0.48333  0.58823  0.41546  1.0000
  C   C139      1.0  0.45025  0.55286  0.42171  1.0000
  O   O14       1.0  0.45037  0.52621  0.48052  1.0000
  C   C140      1.0  0.43599  0.52790  0.56860  1.0000
  H   H88       1.0  0.43708  0.50586  0.61088  1.0000
  H   H89       1.0  0.40564  0.52139  0.56580  1.0000
  H   H90       1.0  0.45414  0.55647  0.60010  1.0000
  C   C141      1.0  0.48987  0.89538  0.36467  1.0000
  C   C142      1.0  0.41691  0.89173  0.36091  1.0000
  N   N27       1.0  0.44643  0.91696  0.41573  1.0000
  C   C143      1.0  0.48178  0.91923  0.42203  1.0000
  O   O15       1.0  0.50841  0.94594  0.48097  1.0000
  C   C144      1.0  0.50667  0.92980  0.56898  1.0000
  H   H91       1.0  0.52870  0.95290  0.61137  1.0000
  H   H92       1.0  0.51316  0.90595  0.56611  1.0000
  H   H93       1.0  0.47808  0.91937  0.60043  1.0000
  C   C145      1.0  0.89242  0.42137  0.36448  1.0000
  C   C146      1.0  0.88872  0.49066  0.36086  1.0000
  N   N28       1.0  0.91398  0.48639  0.41561  1.0000
  C   C147      1.0  0.91626  0.45331  0.42187  1.0000
  O   O16       1.0  0.94300  0.45341  0.48072  1.0000
  C   C148      1.0  0.92691  0.43902  0.56878  1.0000
  H   H94       1.0  0.95004  0.44010  0.61110  1.0000
  H   H95       1.0  0.90307  0.40867  0.56594  1.0000
  H   H96       1.0  0.91648  0.45716  0.60026  1.0000
  C   C149      1.0  0.61344  0.49297  0.36469  1.0000
  C   C150      1.0  0.54411  0.42001  0.36092  1.0000
  N   N29       1.0  0.54840  0.44953  0.41574  1.0000
  C   C151      1.0  0.58149  0.48488  0.42205  1.0000
  O   O17       1.0  0.58142  0.51151  0.48098  1.0000
  C   C152      1.0  0.59580  0.50977  0.56900  1.0000
  H   H97       1.0  0.59474  0.53180  0.61139  1.0000
  H   H98       1.0  0.62614  0.51625  0.56614  1.0000
  H   H99       1.0  0.57764  0.48118  0.60044  1.0000
  C   C153      1.0  0.54173  0.14233  0.36428  1.0000
  C   C154      1.0  0.61472  0.14603  0.36065  1.0000
  N   N30       1.0  0.58519  0.12077  0.41539  1.0000
  C   C155      1.0  0.54983  0.11848  0.42166  1.0000
  O   O18       1.0  0.52319  0.09173  0.48049  1.0000
  C   C156      1.0  0.52489  0.10780  0.56857  1.0000
  H   H100      1.0  0.50285  0.08467  0.61087  1.0000
  H   H101      1.0  0.51839  0.13164  0.56578  1.0000
  H   H102      1.0  0.55347  0.11822  0.60006  1.0000
  N   N31       1.0  0.99803  0.37156  0.41772  1.0000
  C   C157      1.0  0.03775  0.38964  0.42165  1.0000
  H   H103      1.0  0.05102  0.39580  0.48349  1.0000
  N   N32       1.0  0.66372  0.64895  0.41752  1.0000
  C   C158      1.0  0.64565  0.67059  0.42142  1.0000
  H   H104      1.0  0.64002  0.67829  0.48313  1.0000
  N   N33       1.0  0.38622  0.03669  0.41765  1.0000
  C   C159      1.0  0.36456  0.99698  0.42159  1.0000
  H   H105      1.0  0.35740  0.98371  0.48343  1.0000
  N   N34       1.0  0.03369  0.66676  0.41755  1.0000
  C   C160      1.0  0.99397  0.64868  0.42136  1.0000
  H   H106      1.0  0.98060  0.64304  0.48304  1.0000
  N   N35       1.0  0.36837  0.38926  0.41756  1.0000
  C   C161      1.0  0.38644  0.36761  0.42160  1.0000
  H   H107      1.0  0.39251  0.36042  0.48345  1.0000
  N   N36       1.0  0.64588  0.00107  0.41762  1.0000
  C   C162      1.0  0.66752  0.04079  0.42136  1.0000
  H   H108      1.0  0.67525  0.05415  0.48305  1.0000
