data_image0
_chemical_formula_structural       CNCHCNCHCNCHNC2HNC2HNC2HCNCHCNCHCNCHCNCHCNCHCNCHNC2HNC2HNC2HNC2HNC2HNC2HCNCHCNCHCNCHCNCHCNCHCNCHC6H3C6H3C6H3C6H3C6H3C6H3C6H3C6H3C6H3C6H3C6H3C6H3C6H3C6H3C6H3C6H3NC2HNC2HNC2HCNCHCNCHCNCHNC2HNC2HNC2HNC2HNC2HNC2HCNCHCNCHCNCHCNCHCNCHCNCHNC2HNC2HNC2HNC2HNC2HNC2H
_chemical_formula_sum              "C192 N48 H96"
_cell_length_a       41.6195
_cell_length_b       41.6195
_cell_length_c       14.7685
_cell_angle_alpha    90
_cell_angle_beta     90
_cell_angle_gamma    120

_space_group_name_H-M_alt    "P 1"
_space_group_IT_number       1

loop_
  _space_group_symop_operation_xyz
  'x, y, z'

loop_
  _atom_site_type_symbol
  _atom_site_label
  _atom_site_symmetry_multiplicity
  _atom_site_fract_x
  _atom_site_fract_y
  _atom_site_fract_z
  _atom_site_occupancy
  C   C1        1.0  0.01165  0.09501  0.26799  1.0000
  N   N1        1.0  0.01165  0.12781  0.27015  1.0000
  C   C2        1.0  0.01174  0.14490  0.34892  1.0000
  H   H1        1.0  0.01159  0.08371  0.20648  1.0000
  C   C3        1.0  0.92458  0.92056  0.26799  1.0000
  N   N2        1.0  0.89178  0.88776  0.27015  1.0000
  C   C4        1.0  0.87469  0.87076  0.34892  1.0000
  H   H2        1.0  0.93588  0.93179  0.20648  1.0000
  C   C5        1.0  0.09902  0.00793  0.26799  1.0000
  N   N3        1.0  0.13183  0.00793  0.27015  1.0000
  C   C6        1.0  0.14883  0.00786  0.34891  1.0000
  H   H3        1.0  0.08779  0.00799  0.20647  1.0000
  N   N4        1.0  0.12075  0.33971  0.27007  1.0000
  C   C7        1.0  0.09387  0.30330  0.26798  1.0000
  C   C8        1.0  0.07921  0.28322  0.34918  1.0000
  H   H4        1.0  0.08334  0.29122  0.20662  1.0000
  N   N5        1.0  0.67988  0.78492  0.27006  1.0000
  C   C9        1.0  0.71629  0.79446  0.26797  1.0000
  C   C10       1.0  0.73637  0.79989  0.34918  1.0000
  H   H5        1.0  0.72837  0.79602  0.20661  1.0000
  N   N6        1.0  0.23466  0.89887  0.27005  1.0000
  C   C11       1.0  0.22512  0.92574  0.26796  1.0000
  C   C12       1.0  0.21967  0.94038  0.34916  1.0000
  H   H6        1.0  0.22357  0.93626  0.20660  1.0000
  C   C13       1.0  0.30728  0.08981  0.26766  1.0000
  N   N7        1.0  0.34368  0.11669  0.26980  1.0000
  C   C14       1.0  0.36220  0.13077  0.34888  1.0000
  H   H7        1.0  0.29520  0.07930  0.20628  1.0000
  C   C15       1.0  0.79824  0.71231  0.26763  1.0000
  N   N8        1.0  0.78870  0.67590  0.26977  1.0000
  C   C16       1.0  0.78423  0.65738  0.34885  1.0000
  H   H8        1.0  0.79984  0.72439  0.20626  1.0000
  C   C17       1.0  0.92976  0.22137  0.26762  1.0000
  N   N9        1.0  0.90289  0.23091  0.26976  1.0000
  C   C18       1.0  0.88883  0.23537  0.34884  1.0000
  H   H9        1.0  0.94025  0.21978  0.20625  1.0000
  C   C19       1.0  0.28515  0.47185  0.26747  1.0000
  N   N10       1.0  0.32280  0.49050  0.26958  1.0000
  C   C20       1.0  0.34186  0.50053  0.34893  1.0000
  H   H10       1.0  0.27202  0.46606  0.20611  1.0000
  C   C21       1.0  0.54775  0.81723  0.26749  1.0000
  N   N11       1.0  0.52908  0.83622  0.26959  1.0000
  C   C22       1.0  0.51904  0.84524  0.34893  1.0000
  H   H11       1.0  0.55353  0.80990  0.20614  1.0000
  C   C23       1.0  0.20238  0.73444  0.26755  1.0000
  N   N12       1.0  0.18340  0.69679  0.26961  1.0000
  C   C24       1.0  0.17437  0.67774  0.34895  1.0000
  H   H12       1.0  0.20973  0.74757  0.20619  1.0000
  N   N13       1.0  0.49442  0.31874  0.26973  1.0000
  C   C25       1.0  0.47580  0.28109  0.26764  1.0000
  C   C26       1.0  0.46524  0.26062  0.34913  1.0000
  H   H13       1.0  0.47005  0.26797  0.20628  1.0000
  N   N14       1.0  0.84001  0.52519  0.26966  1.0000
  C   C27       1.0  0.82097  0.54380  0.26760  1.0000
  C   C28       1.0  0.81105  0.55434  0.34911  1.0000
  H   H14       1.0  0.81361  0.54957  0.20626  1.0000
  N   N15       1.0  0.70085  0.17959  0.26969  1.0000
  C   C29       1.0  0.73850  0.19862  0.26761  1.0000
  C   C30       1.0  0.75896  0.20852  0.34911  1.0000
  H   H15       1.0  0.75163  0.20600  0.20626  1.0000
  N   N16       1.0  0.15641  0.53472  0.26985  1.0000
  C   C31       1.0  0.16248  0.50557  0.26770  1.0000
  C   C32       1.0  0.16497  0.48919  0.34915  1.0000
  H   H16       1.0  0.16490  0.49559  0.20632  1.0000
  N   N17       1.0  0.48486  0.62560  0.26985  1.0000
  C   C33       1.0  0.51401  0.66084  0.26768  1.0000
  C   C34       1.0  0.53035  0.67971  0.34913  1.0000
  H   H17       1.0  0.52398  0.67322  0.20630  1.0000
  N   N18       1.0  0.39398  0.86318  0.26983  1.0000
  C   C35       1.0  0.35875  0.85709  0.26766  1.0000
  C   C36       1.0  0.33987  0.85456  0.34910  1.0000
  H   H18       1.0  0.34636  0.85467  0.20628  1.0000
  C   C37       1.0  0.50943  0.15831  0.26745  1.0000
  N   N19       1.0  0.53860  0.15225  0.26959  1.0000
  C   C38       1.0  0.55407  0.15017  0.34882  1.0000
  H   H19       1.0  0.49943  0.16068  0.20607  1.0000
  C   C39       1.0  0.66455  0.51015  0.26749  1.0000
  N   N20       1.0  0.62933  0.48099  0.26961  1.0000
  C   C40       1.0  0.61177  0.46551  0.34882  1.0000
  H   H20       1.0  0.67693  0.52016  0.20613  1.0000
  C   C41       1.0  0.86131  0.35507  0.26750  1.0000
  N   N21       1.0  0.86737  0.39029  0.26968  1.0000
  C   C42       1.0  0.86941  0.40781  0.34894  1.0000
  H   H21       1.0  0.85897  0.34271  0.20611  1.0000
  C   C43       1.0  0.02972  0.56081  0.26705  1.0000
  N   N22       1.0  0.99216  0.54175  0.26920  1.0000
  C   C44       1.0  0.97336  0.53286  0.34879  1.0000
  H   H22       1.0  0.04290  0.56622  0.20582  1.0000
  C   C45       1.0  0.45880  0.47284  0.26707  1.0000
  N   N23       1.0  0.47785  0.45432  0.26920  1.0000
  C   C46       1.0  0.48670  0.44439  0.34881  1.0000
  H   H23       1.0  0.45340  0.48062  0.20584  1.0000
  C   C47       1.0  0.54675  0.98988  0.26708  1.0000
  N   N24       1.0  0.56526  0.02744  0.26922  1.0000
  C   C48       1.0  0.57519  0.04622  0.34884  1.0000
  H   H24       1.0  0.53897  0.97670  0.20584  1.0000
  C   C49       1.0  0.01175  0.04229  0.34889  1.0000
  C   C50       1.0  0.04553  0.04161  0.34889  1.0000
  C   C51       1.0  0.04621  0.00784  0.34889  1.0000
  C   C52       1.0  0.01176  0.97406  0.34889  1.0000
  C   C53       1.0  0.97730  0.97337  0.34889  1.0000
  C   C54       1.0  0.97798  0.00783  0.34889  1.0000
  H   H25       1.0  0.01176  0.94945  0.34889  1.0000
  H   H26       1.0  0.95336  0.00783  0.34890  1.0000
  H   H27       1.0  0.07014  0.06623  0.34890  1.0000
  C   C55       1.0  0.04598  0.24801  0.34905  1.0000
  C   C56       1.0  0.01178  0.24746  0.34898  1.0000
  C   C57       1.0  0.97757  0.21382  0.34887  1.0000
  C   C58       1.0  0.97793  0.17992  0.34882  1.0000
  C   C59       1.0  0.01176  0.17928  0.34892  1.0000
  C   C60       1.0  0.04559  0.21373  0.34905  1.0000
  H   H28       1.0  0.95322  0.15540  0.34873  1.0000
  H   H29       1.0  0.07030  0.21391  0.34912  1.0000
  H   H30       1.0  0.01180  0.27213  0.34899  1.0000
  C   C61       1.0  0.77158  0.80188  0.34905  1.0000
  C   C62       1.0  0.77214  0.76824  0.34898  1.0000
  C   C63       1.0  0.80578  0.76766  0.34888  1.0000
  C   C64       1.0  0.83968  0.80193  0.34882  1.0000
  C   C65       1.0  0.84031  0.83639  0.34892  1.0000
  C   C66       1.0  0.80586  0.83578  0.34905  1.0000
  H   H31       1.0  0.86420  0.80174  0.34874  1.0000
  H   H32       1.0  0.80567  0.86030  0.34912  1.0000
  H   H33       1.0  0.74748  0.74358  0.34900  1.0000
  C   C67       1.0  0.21769  0.97361  0.34903  1.0000
  C   C68       1.0  0.25134  0.00780  0.34897  1.0000
  C   C69       1.0  0.25193  0.04202  0.34888  1.0000
  C   C70       1.0  0.21766  0.04166  0.34884  1.0000
  C   C71       1.0  0.18320  0.00784  0.34892  1.0000
  C   C72       1.0  0.18380  0.97400  0.34903  1.0000
  H   H34       1.0  0.21787  0.06638  0.34877  1.0000
  H   H35       1.0  0.15928  0.94930  0.34909  1.0000
  H   H36       1.0  0.27600  0.00779  0.34900  1.0000
  C   C73       1.0  0.17550  0.46172  0.34909  1.0000
  C   C74       1.0  0.21366  0.47349  0.34903  1.0000
  C   C75       1.0  0.22602  0.44755  0.34899  1.0000
  C   C76       1.0  0.19968  0.40918  0.34900  1.0000
  C   C77       1.0  0.16117  0.39669  0.34907  1.0000
  C   C78       1.0  0.14938  0.42329  0.34913  1.0000
  H   H37       1.0  0.20863  0.39028  0.34897  1.0000
  H   H38       1.0  0.12160  0.41466  0.34919  1.0000
  H   H39       1.0  0.23272  0.50135  0.34903  1.0000
  C   C79       1.0  0.55784  0.71771  0.34910  1.0000
  C   C80       1.0  0.54611  0.74412  0.34904  1.0000
  C   C81       1.0  0.57208  0.78242  0.34900  1.0000
  C   C82       1.0  0.61044  0.79441  0.34900  1.0000
  C   C83       1.0  0.62290  0.76837  0.34907  1.0000
  C   C84       1.0  0.59628  0.72999  0.34913  1.0000
  H   H40       1.0  0.62935  0.82226  0.34897  1.0000
  H   H41       1.0  0.60488  0.71082  0.34917  1.0000
  H   H42       1.0  0.51825  0.73534  0.34903  1.0000
  C   C85       1.0  0.30188  0.84406  0.34907  1.0000
  C   C86       1.0  0.27546  0.80591  0.34903  1.0000
  C   C87       1.0  0.23716  0.79357  0.34900  1.0000
  C   C88       1.0  0.22517  0.81994  0.34902  1.0000
  C   C89       1.0  0.25121  0.85844  0.34906  1.0000
  C   C90       1.0  0.28959  0.87020  0.34909  1.0000
  H   H43       1.0  0.19732  0.81100  0.34902  1.0000
  H   H44       1.0  0.30876  0.89797  0.34913  1.0000
  H   H45       1.0  0.28425  0.78683  0.34903  1.0000
  C   C91       1.0  0.46566  0.17144  0.34893  1.0000
  C   C92       1.0  0.47743  0.20959  0.34903  1.0000
  C   C93       1.0  0.45150  0.22196  0.34904  1.0000
  C   C94       1.0  0.41313  0.19562  0.34900  1.0000
  C   C95       1.0  0.40063  0.15711  0.34890  1.0000
  C   C96       1.0  0.42722  0.14532  0.34885  1.0000
  H   H46       1.0  0.39424  0.20458  0.34903  1.0000
  H   H47       1.0  0.41859  0.11754  0.34879  1.0000
  H   H48       1.0  0.50530  0.22865  0.34906  1.0000
  C   C97       1.0  0.72144  0.55391  0.34896  1.0000
  C   C98       1.0  0.74782  0.54214  0.34906  1.0000
  C   C99       1.0  0.78614  0.56808  0.34904  1.0000
  C   C100      1.0  0.79816  0.60645  0.34896  1.0000
  C   C101      1.0  0.77215  0.61895  0.34890  1.0000
  C   C102      1.0  0.73376  0.59235  0.34888  1.0000
  H   H49       1.0  0.82601  0.62534  0.34897  1.0000
  H   H50       1.0  0.71461  0.60098  0.34882  1.0000
  H   H51       1.0  0.73902  0.51428  0.34911  1.0000
  C   C103      1.0  0.84814  0.29815  0.34896  1.0000
  C   C104      1.0  0.80998  0.27175  0.34905  1.0000
  C   C105      1.0  0.79763  0.23345  0.34904  1.0000
  C   C106      1.0  0.82397  0.22143  0.34897  1.0000
  C   C107      1.0  0.86248  0.24745  0.34889  1.0000
  C   C108      1.0  0.87427  0.28584  0.34886  1.0000
  H   H52       1.0  0.81502  0.19358  0.34898  1.0000
  H   H53       1.0  0.90204  0.30499  0.34879  1.0000
  H   H54       1.0  0.79092  0.28055  0.34910  1.0000
  C   C109      1.0  0.08846  0.58574  0.34889  1.0000
  C   C110      1.0  0.10296  0.56157  0.34897  1.0000
  C   C111      1.0  0.14160  0.57573  0.34905  1.0000
  C   C112      1.0  0.16584  0.61460  0.34905  1.0000
  C   C113      1.0  0.15138  0.63901  0.34895  1.0000
  C   C114      1.0  0.11263  0.62437  0.34887  1.0000
  H   H55       1.0  0.19397  0.62510  0.34911  1.0000
  H   H56       1.0  0.10189  0.64184  0.34882  1.0000
  H   H57       1.0  0.08515  0.53341  0.34898  1.0000
  C   C115      1.0  0.43386  0.50664  0.34892  1.0000
  C   C116      1.0  0.45803  0.54531  0.34900  1.0000
  C   C117      1.0  0.44386  0.56979  0.34907  1.0000
  C   C118      1.0  0.40499  0.55515  0.34905  1.0000
  C   C119      1.0  0.38059  0.51628  0.34896  1.0000
  C   C120      1.0  0.39523  0.49217  0.34889  1.0000
  H   H58       1.0  0.39449  0.57277  0.34911  1.0000
  H   H59       1.0  0.37776  0.46396  0.34882  1.0000
  H   H60       1.0  0.48619  0.55567  0.34900  1.0000
  C   C121      1.0  0.51295  0.93114  0.34892  1.0000
  C   C122      1.0  0.47428  0.91664  0.34899  1.0000
  C   C123      1.0  0.44980  0.87799  0.34905  1.0000
  C   C124      1.0  0.46443  0.85376  0.34905  1.0000
  C   C125      1.0  0.50330  0.86822  0.34896  1.0000
  C   C126      1.0  0.52741  0.90697  0.34889  1.0000
  H   H61       1.0  0.44680  0.82563  0.34909  1.0000
  H   H62       1.0  0.55562  0.91771  0.34883  1.0000
  H   H63       1.0  0.46392  0.93444  0.34900  1.0000
  C   C127      1.0  0.58989  0.08455  0.34888  1.0000
  C   C128      1.0  0.56564  0.09894  0.34882  1.0000
  C   C129      1.0  0.57973  0.13758  0.34888  1.0000
  C   C130      1.0  0.61860  0.16188  0.34897  1.0000
  C   C131      1.0  0.64307  0.14748  0.34900  1.0000
  C   C132      1.0  0.62850  0.10874  0.34896  1.0000
  H   H64       1.0  0.62905  0.19000  0.34899  1.0000
  H   H65       1.0  0.64602  0.09806  0.34898  1.0000
  H   H66       1.0  0.53749  0.08109  0.34875  1.0000
  C   C133      1.0  0.51032  0.42969  0.34885  1.0000
  C   C134      1.0  0.54897  0.45394  0.34879  1.0000
  C   C135      1.0  0.57351  0.43985  0.34886  1.0000
  C   C136      1.0  0.55895  0.40098  0.34898  1.0000
  C   C137      1.0  0.52008  0.37651  0.34900  1.0000
  C   C138      1.0  0.49591  0.39108  0.34896  1.0000
  H   H67       1.0  0.57662  0.39053  0.34903  1.0000
  H   H68       1.0  0.46770  0.37356  0.34898  1.0000
  H   H69       1.0  0.55927  0.48209  0.34871  1.0000
  C   C139      1.0  0.93504  0.50926  0.34884  1.0000
  C   C140      1.0  0.92064  0.47061  0.34883  1.0000
  C   C141      1.0  0.88200  0.44607  0.34891  1.0000
  C   C142      1.0  0.85771  0.46064  0.34901  1.0000
  C   C143      1.0  0.87211  0.49951  0.34898  1.0000
  C   C144      1.0  0.91084  0.52368  0.34890  1.0000
  H   H70       1.0  0.82958  0.44297  0.34907  1.0000
  H   H71       1.0  0.92154  0.55188  0.34890  1.0000
  H   H72       1.0  0.93849  0.46030  0.34878  1.0000
  N   N25       1.0  0.01184  0.12790  0.42767  1.0000
  C   C145      1.0  0.01184  0.09509  0.42982  1.0000
  C   C146      1.0  0.01174  0.07685  0.34890  1.0000
  H   H73       1.0  0.01191  0.08386  0.49133  1.0000
  N   N26       1.0  0.89169  0.88786  0.42767  1.0000
  C   C147      1.0  0.92449  0.92066  0.42982  1.0000
  C   C148      1.0  0.94274  0.93881  0.34890  1.0000
  H   H74       1.0  0.93573  0.93196  0.49132  1.0000
  N   N27       1.0  0.13174  0.00777  0.42767  1.0000
  C   C149      1.0  0.09894  0.00776  0.42982  1.0000
  C   C150      1.0  0.08078  0.00785  0.34890  1.0000
  H   H75       1.0  0.08764  0.00770  0.49132  1.0000
  C   C151      1.0  0.09380  0.30336  0.43033  1.0000
  N   N28       1.0  0.12070  0.33975  0.42819  1.0000
  C   C152      1.0  0.13481  0.35826  0.34911  1.0000
  H   H76       1.0  0.08327  0.29129  0.49169  1.0000
  C   C153      1.0  0.71623  0.79432  0.43032  1.0000
  N   N29       1.0  0.67983  0.78482  0.42817  1.0000
  C   C154      1.0  0.66132  0.78043  0.34910  1.0000
  H   H77       1.0  0.72829  0.79587  0.49169  1.0000
  C   C155      1.0  0.22523  0.92579  0.43031  1.0000
  N   N30       1.0  0.23474  0.89890  0.42818  1.0000
  C   C156      1.0  0.23916  0.88481  0.34911  1.0000
  H   H78       1.0  0.22367  0.93631  0.49167  1.0000
  N   N31       1.0  0.34364  0.11673  0.42793  1.0000
  C   C157      1.0  0.30723  0.08987  0.43004  1.0000
  C   C158      1.0  0.28717  0.07522  0.34882  1.0000
  H   H79       1.0  0.29514  0.07935  0.49139  1.0000
  N   N32       1.0  0.78870  0.67592  0.42790  1.0000
  C   C159      1.0  0.79827  0.71234  0.42997  1.0000
  C   C160      1.0  0.80377  0.73244  0.34877  1.0000
  H   H80       1.0  0.79981  0.72442  0.49133  1.0000
  N   N33       1.0  0.90290  0.23090  0.42789  1.0000
  C   C161      1.0  0.92975  0.22133  0.42997  1.0000
  C   C162      1.0  0.94436  0.21584  0.34877  1.0000
  H   H81       1.0  0.94029  0.21979  0.49132  1.0000
  N   N34       1.0  0.32281  0.49057  0.42830  1.0000
  C   C163      1.0  0.28516  0.47192  0.43043  1.0000
  C   C164      1.0  0.26469  0.46131  0.34895  1.0000
  H   H82       1.0  0.27204  0.46620  0.49178  1.0000
  N   N35       1.0  0.52900  0.83615  0.42830  1.0000
  C   C165      1.0  0.54768  0.81717  0.43041  1.0000
  C   C166      1.0  0.55836  0.80736  0.34896  1.0000
  H   H83       1.0  0.55339  0.80977  0.49177  1.0000
  N   N36       1.0  0.18342  0.69676  0.42834  1.0000
  C   C167      1.0  0.20240  0.73441  0.43046  1.0000
  C   C168      1.0  0.21222  0.75492  0.34903  1.0000
  H   H84       1.0  0.20978  0.74753  0.49183  1.0000
  C   C169      1.0  0.47585  0.28110  0.43058  1.0000
  N   N37       1.0  0.49446  0.31876  0.42845  1.0000
  C   C170      1.0  0.50442  0.33780  0.34909  1.0000
  H   H85       1.0  0.47011  0.26799  0.49194  1.0000
  C   C171      1.0  0.82091  0.54371  0.43055  1.0000
  N   N38       1.0  0.83996  0.52511  0.42840  1.0000
  C   C172      1.0  0.84906  0.51517  0.34900  1.0000
  H   H86       1.0  0.81353  0.54944  0.49192  1.0000
  C   C173      1.0  0.73847  0.19865  0.43055  1.0000
  N   N39       1.0  0.70082  0.17961  0.42840  1.0000
  C   C174      1.0  0.68178  0.17053  0.34902  1.0000
  H   H87       1.0  0.75159  0.20602  0.49192  1.0000
  C   C175      1.0  0.16241  0.50553  0.43058  1.0000
  N   N40       1.0  0.15635  0.53469  0.42842  1.0000
  C   C176      1.0  0.15426  0.55011  0.34914  1.0000
  H   H88       1.0  0.16481  0.49554  0.49196  1.0000
  C   C177      1.0  0.51405  0.66082  0.43058  1.0000
  N   N41       1.0  0.48490  0.62559  0.42842  1.0000
  C   C178      1.0  0.46947  0.60806  0.34915  1.0000
  H   H89       1.0  0.52404  0.67320  0.49196  1.0000
  C   C179      1.0  0.35876  0.85715  0.43056  1.0000
  N   N42       1.0  0.39399  0.86323  0.42841  1.0000
  C   C180      1.0  0.41152  0.86533  0.34913  1.0000
  H   H90       1.0  0.34638  0.85476  0.49193  1.0000
  N   N43       1.0  0.53871  0.15239  0.42809  1.0000
  C   C181      1.0  0.50955  0.15846  0.43029  1.0000
  C   C182      1.0  0.49311  0.16088  0.34889  1.0000
  H   H91       1.0  0.49962  0.16092  0.49169  1.0000
  N   N44       1.0  0.62934  0.48086  0.42812  1.0000
  C   C183      1.0  0.66456  0.51001  0.43035  1.0000
  C   C184      1.0  0.68343  0.52646  0.34896  1.0000
  H   H92       1.0  0.67695  0.51994  0.49175  1.0000
  N   N45       1.0  0.86715  0.39021  0.42819  1.0000
  C   C185      1.0  0.86108  0.35498  0.43037  1.0000
  C   C186      1.0  0.85867  0.33615  0.34893  1.0000
  H   H93       1.0  0.85859  0.34257  0.49175  1.0000
  N   N46       1.0  0.99215  0.54179  0.42840  1.0000
  C   C187      1.0  0.02971  0.56088  0.43058  1.0000
  C   C188      1.0  0.04990  0.57090  0.34882  1.0000
  H   H94       1.0  0.04289  0.56625  0.49184  1.0000
  N   N47       1.0  0.47780  0.45426  0.42844  1.0000
  C   C189      1.0  0.45871  0.47274  0.43061  1.0000
  C   C190      1.0  0.44871  0.48292  0.34884  1.0000
  H   H95       1.0  0.45334  0.48054  0.49186  1.0000
  N   N48       1.0  0.56532  0.02745  0.42846  1.0000
  C   C191      1.0  0.54685  0.98989  0.43062  1.0000
  C   C192      1.0  0.53666  0.96970  0.34885  1.0000
  H   H96       1.0  0.53904  0.97671  0.49186  1.0000
