data_image0
_chemical_formula_structural       C3NC3NC5NC4NC35H25C4N2O4C4N2O4C18H17C2H2C2H2
_chemical_formula_sum              "C80 N8 H46 O8"
_cell_length_a       30.0168
_cell_length_b       30.0165
_cell_length_c       14.8713
_cell_angle_alpha    90
_cell_angle_beta     90
_cell_angle_gamma    90.0715

_space_group_name_H-M_alt    "P 1"
_space_group_IT_number       1

loop_
  _space_group_symop_operation_xyz
  'x, y, z'

loop_
  _atom_site_type_symbol
  _atom_site_label
  _atom_site_symmetry_multiplicity
  _atom_site_fract_x
  _atom_site_fract_y
  _atom_site_fract_z
  _atom_site_occupancy
  C   C1        1.0  0.12230  0.08810  0.34245  1.0000
  C   C2        1.0  0.08970  0.12049  0.34199  1.0000
  C   C3        1.0  0.04813  0.09950  0.34247  1.0000
  N   N1        1.0  0.05722  0.05519  0.34230  1.0000
  C   C4        1.0  0.10159  0.04639  0.34208  1.0000
  C   C5        1.0  0.12445  0.00479  0.34212  1.0000
  C   C6        1.0  0.10287  0.96256  0.34212  1.0000
  N   N2        1.0  0.05864  0.95372  0.34208  1.0000
  C   C7        1.0  0.05009  0.90943  0.34187  1.0000
  C   C8        1.0  0.09162  0.88853  0.34209  1.0000
  C   C9        1.0  0.12404  0.92116  0.34154  1.0000
  C   C10       1.0  0.00801  0.88758  0.34208  1.0000
  C   C11       1.0  0.96626  0.91018  0.34221  1.0000
  N   N3        1.0  0.95719  0.95449  0.34213  1.0000
  C   C12       1.0  0.91282  0.96327  0.34195  1.0000
  C   C13       1.0  0.89210  0.92156  0.34228  1.0000
  C   C14       1.0  0.92469  0.88919  0.34170  1.0000
  C   C15       1.0  0.88994  0.00487  0.34213  1.0000
  N   N4        1.0  0.95574  0.05594  0.34231  1.0000
  C   C16       1.0  0.96430  0.10022  0.34220  1.0000
  C   C17       1.0  0.92275  0.12111  0.34255  1.0000
  C   C18       1.0  0.89034  0.08848  0.34192  1.0000
  C   C19       1.0  0.00638  0.12208  0.34236  1.0000
  C   C20       1.0  0.00656  0.16987  0.34219  1.0000
  C   C21       1.0  0.99691  0.19393  0.26288  1.0000
  C   C22       1.0  0.99623  0.24086  0.26314  1.0000
  C   C23       1.0  0.00559  0.26553  0.34226  1.0000
  C   C24       1.0  0.00488  0.31341  0.34217  1.0000
  C   C25       1.0  0.97036  0.38427  0.29608  1.0000
  C   C26       1.0  0.97076  0.33734  0.29749  1.0000
  C   C27       1.0  0.84215  0.00429  0.34183  1.0000
  C   C28       1.0  0.81826  0.99434  0.26245  1.0000
  C   C29       1.0  0.77133  0.99347  0.26236  1.0000
  C   C30       1.0  0.74651  0.00301  0.34115  1.0000
  C   C31       1.0  0.69862  0.00239  0.34062  1.0000
  C   C32       1.0  0.67463  0.96818  0.29622  1.0000
  C   C33       1.0  0.62770  0.96785  0.29450  1.0000
  C   C34       1.0  0.60275  0.00200  0.33639  1.0000
  C   C35       1.0  0.00776  0.83979  0.34204  1.0000
  C   C36       1.0  0.00754  0.74414  0.34197  1.0000
  C   C37       1.0  0.01743  0.76871  0.26300  1.0000
  C   C38       1.0  0.01730  0.81565  0.26279  1.0000
  C   C39       1.0  0.00752  0.69625  0.34177  1.0000
  C   C40       1.0  0.04137  0.67185  0.29732  1.0000
  C   C41       1.0  0.04111  0.62493  0.29588  1.0000
  C   C42       1.0  0.00672  0.60038  0.33812  1.0000
  C   C43       1.0  0.17224  0.00530  0.34195  1.0000
  C   C44       1.0  0.19621  0.01480  0.26246  1.0000
  C   C45       1.0  0.24315  0.01511  0.26230  1.0000
  C   C46       1.0  0.26790  0.00546  0.34113  1.0000
  C   C47       1.0  0.31580  0.00540  0.34048  1.0000
  C   C48       1.0  0.41167  0.00448  0.33610  1.0000
  C   C49       1.0  0.38716  0.03870  0.29338  1.0000
  C   C50       1.0  0.34024  0.03901  0.29517  1.0000
  H   H1        1.0  0.40340  0.06395  0.26072  1.0000
  H   H2        1.0  0.32401  0.06468  0.26399  1.0000
  H   H3        1.0  0.25917  0.02151  0.20295  1.0000
  H   H4        1.0  0.17956  0.02148  0.20392  1.0000
  H   H5        1.0  0.15572  0.09462  0.34275  1.0000
  H   H6        1.0  0.09600  0.15394  0.34155  1.0000
  H   H7        1.0  0.03466  0.03248  0.34232  1.0000
  H   H8        1.0  0.97974  0.97719  0.34220  1.0000
  H   H9        1.0  0.15751  0.91508  0.34105  1.0000
  H   H10       1.0  0.09793  0.85510  0.34240  1.0000
  H   H11       1.0  0.02429  0.83217  0.20424  1.0000
  H   H12       1.0  0.02397  0.75257  0.20388  1.0000
  H   H13       1.0  0.91838  0.85573  0.34119  1.0000
  H   H14       1.0  0.85869  0.91502  0.34267  1.0000
  H   H15       1.0  0.85686  0.09456  0.34145  1.0000
  H   H16       1.0  0.83497  0.98759  0.20400  1.0000
  H   H17       1.0  0.75535  0.98666  0.20314  1.0000
  H   H18       1.0  0.61179  0.94220  0.26246  1.0000
  H   H19       1.0  0.69120  0.94257  0.26555  1.0000
  H   H20       1.0  0.94527  0.32072  0.26641  1.0000
  H   H21       1.0  0.94479  0.40012  0.26376  1.0000
  H   H22       1.0  0.98953  0.25695  0.20402  1.0000
  H   H23       1.0  0.99012  0.17734  0.20430  1.0000
  H   H24       1.0  0.06715  0.68811  0.26643  1.0000
  H   H25       1.0  0.06651  0.60871  0.26377  1.0000
  C   C51       1.0  0.00577  0.55261  0.33432  1.0000
  C   C52       1.0  0.00477  0.45708  0.33450  1.0000
  C   C53       1.0  0.00507  0.48093  0.25170  1.0000
  C   C54       1.0  0.00524  0.52869  0.25161  1.0000
  N   N5        1.0  0.00739  0.45503  0.17208  1.0000
  N   N6        1.0  0.00284  0.55455  0.17194  1.0000
  O   O1        1.0  0.04352  0.45938  0.13060  1.0000
  O   O2        1.0  0.03525  0.54951  0.11974  1.0000
  O   O3        1.0  0.97491  0.46002  0.12004  1.0000
  O   O4        1.0  0.96665  0.55019  0.13067  1.0000
  C   C55       1.0  0.45944  0.00352  0.33218  1.0000
  C   C56       1.0  0.55496  0.00244  0.33235  1.0000
  C   C57       1.0  0.53111  0.00246  0.24955  1.0000
  C   C58       1.0  0.48334  0.00268  0.24948  1.0000
  N   N7        1.0  0.55701  0.00447  0.16988  1.0000
  N   N8        1.0  0.45746  0.00002  0.16988  1.0000
  O   O5        1.0  0.55277  0.04044  0.12784  1.0000
  O   O6        1.0  0.46260  0.03224  0.11723  1.0000
  O   O7        1.0  0.55190  0.97178  0.11836  1.0000
  O   O8        1.0  0.46170  0.96369  0.12913  1.0000
  C   C59       1.0  0.91151  0.04709  0.34236  1.0000
  C   C60       1.0  0.01566  0.24108  0.42123  1.0000
  C   C61       1.0  0.01586  0.19412  0.42146  1.0000
  C   C62       1.0  0.03834  0.33863  0.38623  1.0000
  C   C63       1.0  0.03811  0.38559  0.38441  1.0000
  C   C64       1.0  0.00434  0.40929  0.33853  1.0000
  C   C65       1.0  0.77079  0.01328  0.42026  1.0000
  C   C66       1.0  0.81774  0.01366  0.42084  1.0000
  C   C67       1.0  0.62653  0.03590  0.38192  1.0000
  C   C68       1.0  0.67348  0.03605  0.38403  1.0000
  C   C69       1.0  0.99804  0.81563  0.42121  1.0000
  C   C70       1.0  0.99766  0.76867  0.42093  1.0000
  C   C71       1.0  0.97319  0.62454  0.38375  1.0000
  C   C72       1.0  0.97362  0.67150  0.38556  1.0000
  C   C73       1.0  0.19657  0.99588  0.42105  1.0000
  C   C74       1.0  0.24352  0.99573  0.42041  1.0000
  C   C75       1.0  0.34053  0.97165  0.38463  1.0000
  C   C76       1.0  0.38747  0.97119  0.38253  1.0000
  H   H26       1.0  0.40393  0.94562  0.41361  1.0000
  H   H27       1.0  0.32446  0.94620  0.41696  1.0000
  H   H28       1.0  0.25983  0.98924  0.47937  1.0000
  H   H29       1.0  0.18018  0.98894  0.47977  1.0000
  H   H30       1.0  0.99115  0.83214  0.47980  1.0000
  H   H31       1.0  0.99104  0.75249  0.47999  1.0000
  H   H32       1.0  0.91644  0.15455  0.34294  1.0000
  H   H33       1.0  0.83407  0.02086  0.47950  1.0000
  H   H34       1.0  0.75442  0.01973  0.47917  1.0000
  H   H35       1.0  0.68922  0.06192  0.41566  1.0000
  H   H36       1.0  0.60976  0.06145  0.41236  1.0000
  H   H37       1.0  0.02273  0.17767  0.48013  1.0000
  H   H38       1.0  0.02191  0.25733  0.48040  1.0000
  H   H39       1.0  0.06353  0.40243  0.41532  1.0000
  H   H40       1.0  0.06411  0.32294  0.41817  1.0000
  H   H41       1.0  0.94801  0.68755  0.41728  1.0000
  H   H42       1.0  0.94751  0.60805  0.41452  1.0000
  C   C77       1.0  0.00546  0.52827  0.41556  1.0000
  C   C78       1.0  0.00510  0.48151  0.41565  1.0000
  H   H43       1.0  0.00470  0.46532  0.47624  1.0000
  H   H44       1.0  0.00604  0.54453  0.47608  1.0000
  C   C79       1.0  0.48379  0.00350  0.41343  1.0000
  C   C80       1.0  0.53055  0.00308  0.41347  1.0000
  H   H45       1.0  0.54672  0.00289  0.47408  1.0000
  H   H46       1.0  0.46751  0.00429  0.47393  1.0000
