data_image0
_chemical_formula_structural       NC3O2HNC3O2HNC3O2HNC3O2HNC3O2HNC3O2HCNC2O2HCNC2O2HCNC2O2HCNC2O2HCNC2O2HCNC2O2HNC3O2HNC3O2HNC3O2HNC3O2HNC3O2HNC3O2HC6H3C6H3C6H3C6H3C6H3C6H3C6H3C6H3C6H3C6H3C6H3C6H3CNC2O2HCNC2O2HCNC2O2HCNC2O2HCNC2O2HCNC2O2HNC3O2HNC3O2HNC3O2HNC3O2HNC3O2HNC3O2HCNC2O2HCNC2O2HCNC2O2HCNC2O2HCNC2O2HCNC2O2H
_chemical_formula_sum              "N36 C180 O72 H72"
_cell_length_a       39.5159
_cell_length_b       39.5159
_cell_length_c       14.821
_cell_angle_alpha    90
_cell_angle_beta     90
_cell_angle_gamma    120

_space_group_name_H-M_alt    "P 1"
_space_group_IT_number       1

loop_
  _space_group_symop_operation_xyz
  'x, y, z'

loop_
  _atom_site_type_symbol
  _atom_site_label
  _atom_site_symmetry_multiplicity
  _atom_site_fract_x
  _atom_site_fract_y
  _atom_site_fract_z
  _atom_site_occupancy
  N   N1        1.0  0.24356  0.44000  0.30411  1.0000
  C   C1        1.0  0.20752  0.43662  0.29748  1.0000
  C   C2        1.0  0.19878  0.45984  0.35560  1.0000
  C   C3        1.0  0.18314  0.41409  0.22799  1.0000
  O   O1        1.0  0.17945  0.38184  0.21554  1.0000
  O   O2        1.0  0.17777  0.42930  0.16064  1.0000
  H   H1        1.0  0.18254  0.45370  0.15752  1.0000
  N   N2        1.0  0.59314  0.82500  0.30103  1.0000
  C   C4        1.0  0.59624  0.79223  0.29427  1.0000
  C   C5        1.0  0.57381  0.76067  0.35405  1.0000
  C   C6        1.0  0.61817  0.79110  0.22290  1.0000
  O   O3        1.0  0.65344  0.80701  0.23463  1.0000
  O   O4        1.0  0.60488  0.76455  0.16634  1.0000
  H   H2        1.0  0.57972  0.74989  0.15335  1.0000
  N   N3        1.0  0.20866  0.78990  0.30195  1.0000
  C   C7        1.0  0.24142  0.82575  0.29499  1.0000
  C   C8        1.0  0.27306  0.83488  0.35453  1.0000
  C   C9        1.0  0.24248  0.84883  0.22373  1.0000
  O   O5        1.0  0.22652  0.86813  0.23562  1.0000
  O   O6        1.0  0.26901  0.86215  0.16711  1.0000
  H   H3        1.0  0.28370  0.85170  0.15398  1.0000
  N   N4        1.0  0.78667  0.59639  0.30220  1.0000
  C   C10       1.0  0.82252  0.59946  0.29542  1.0000
  C   C11       1.0  0.83170  0.57711  0.35533  1.0000
  C   C12       1.0  0.84558  0.62138  0.22403  1.0000
  O   O7        1.0  0.86498  0.65664  0.23577  1.0000
  O   O8        1.0  0.85881  0.60805  0.16747  1.0000
  H   H4        1.0  0.84828  0.58290  0.15448  1.0000
  N   N5        1.0  0.43681  0.21173  0.30459  1.0000
  C   C13       1.0  0.43345  0.24442  0.29799  1.0000
  C   C14       1.0  0.45667  0.27637  0.35612  1.0000
  C   C15       1.0  0.41090  0.24627  0.22854  1.0000
  O   O9        1.0  0.37865  0.21771  0.21609  1.0000
  O   O10       1.0  0.42610  0.26686  0.16121  1.0000
  H   H5        1.0  0.45049  0.28649  0.15808  1.0000
  N   N6        1.0  0.82170  0.24719  0.30116  1.0000
  C   C16       1.0  0.78895  0.21134  0.29411  1.0000
  C   C17       1.0  0.75741  0.20204  0.35410  1.0000
  C   C18       1.0  0.78778  0.18842  0.22236  1.0000
  O   O11       1.0  0.80367  0.16902  0.23363  1.0000
  O   O12       1.0  0.76119  0.17528  0.16591  1.0000
  H   H6        1.0  0.74653  0.18581  0.15322  1.0000
  C   C19       1.0  0.14265  0.54644  0.33278  1.0000
  N   N7        1.0  0.12614  0.59246  0.27493  1.0000
  C   C20       1.0  0.12386  0.55718  0.26620  1.0000
  C   C21       1.0  0.10352  0.53399  0.19279  1.0000
  O   O13       1.0  0.12160  0.52460  0.14139  1.0000
  O   O14       1.0  0.07457  0.53358  0.15989  1.0000
  H   H7        1.0  0.05917  0.54005  0.18953  1.0000
  C   C22       1.0  0.48742  0.61787  0.33241  1.0000
  N   N8        1.0  0.44142  0.55523  0.27513  1.0000
  C   C23       1.0  0.47671  0.58821  0.26620  1.0000
  C   C24       1.0  0.49997  0.59093  0.19310  1.0000
  O   O15       1.0  0.50830  0.61786  0.14067  1.0000
  O   O16       1.0  0.49985  0.56227  0.15939  1.0000
  H   H8        1.0  0.49372  0.54050  0.18911  1.0000
  C   C25       1.0  0.41588  0.89139  0.33212  1.0000
  N   N9        1.0  0.47871  0.90857  0.27524  1.0000
  C   C26       1.0  0.44578  0.91096  0.26672  1.0000
  C   C27       1.0  0.44337  0.93214  0.19461  1.0000
  O   O17       1.0  0.41620  0.91479  0.14205  1.0000
  O   O18       1.0  0.47209  0.96124  0.16271  1.0000
  H   H9        1.0  0.49395  0.97624  0.19278  1.0000
  C   C28       1.0  0.88780  0.49049  0.33331  1.0000
  N   N10       1.0  0.90420  0.44445  0.27516  1.0000
  C   C29       1.0  0.90644  0.47971  0.26643  1.0000
  C   C30       1.0  0.92657  0.50284  0.19283  1.0000
  O   O19       1.0  0.90853  0.51250  0.14197  1.0000
  O   O20       1.0  0.95506  0.50284  0.15829  1.0000
  H   H10       1.0  0.97047  0.49610  0.18691  1.0000
  C   C31       1.0  0.54318  0.41917  0.33371  1.0000
  N   N11       1.0  0.58915  0.48171  0.27590  1.0000
  C   C32       1.0  0.55387  0.44871  0.26719  1.0000
  C   C33       1.0  0.53066  0.44588  0.19386  1.0000
  O   O21       1.0  0.52128  0.41844  0.14238  1.0000
  O   O22       1.0  0.53022  0.47443  0.16107  1.0000
  H   H11       1.0  0.53671  0.49629  0.19078  1.0000
  C   C34       1.0  0.61462  0.14566  0.33244  1.0000
  N   N12       1.0  0.55197  0.12904  0.27525  1.0000
  C   C35       1.0  0.58495  0.12674  0.26623  1.0000
  C   C36       1.0  0.58764  0.10622  0.19306  1.0000
  O   O23       1.0  0.61456  0.12482  0.14062  1.0000
  O   O24       1.0  0.55898  0.07769  0.15935  1.0000
  H   H12       1.0  0.53721  0.06205  0.18906  1.0000
  N   N13       1.0  0.99202  0.37966  0.26481  1.0000
  C   C37       1.0  0.03163  0.39888  0.25627  1.0000
  C   C38       1.0  0.05415  0.40577  0.33600  1.0000
  C   C39       1.0  0.04786  0.41485  0.17278  1.0000
  O   O25       1.0  0.03153  0.42731  0.12420  1.0000
  O   O26       1.0  0.07279  0.40946  0.13568  1.0000
  H   H13       1.0  0.08441  0.39759  0.16072  1.0000
  N   N14       1.0  0.65459  0.63452  0.26518  1.0000
  C   C40       1.0  0.63543  0.65497  0.25634  1.0000
  C   C41       1.0  0.62815  0.67039  0.33589  1.0000
  C   C42       1.0  0.61982  0.65557  0.17263  1.0000
  O   O27       1.0  0.60812  0.62722  0.12287  1.0000
  O   O28       1.0  0.62619  0.68620  0.13537  1.0000
  H   H14       1.0  0.63796  0.70958  0.16093  1.0000
  N   N15       1.0  0.39903  0.04172  0.26589  1.0000
  C   C43       1.0  0.37848  0.00212  0.25723  1.0000
  C   C44       1.0  0.36326  0.97954  0.33699  1.0000
  C   C45       1.0  0.37765  0.98579  0.17354  1.0000
  O   O29       1.0  0.40590  0.00236  0.12342  1.0000
  O   O30       1.0  0.34693  0.96154  0.13664  1.0000
  H   H15       1.0  0.32360  0.95000  0.16248  1.0000
  N   N16       1.0  0.03837  0.65744  0.26485  1.0000
  C   C46       1.0  0.99875  0.63827  0.25647  1.0000
  C   C47       1.0  0.97628  0.63119  0.33631  1.0000
  C   C48       1.0  0.98233  0.62258  0.17296  1.0000
  O   O31       1.0  0.99886  0.61079  0.12301  1.0000
  O   O32       1.0  0.95805  0.62898  0.13595  1.0000
  H   H16       1.0  0.94654  0.64083  0.16163  1.0000
  N   N17       1.0  0.37641  0.40288  0.26558  1.0000
  C   C49       1.0  0.39563  0.38249  0.25699  1.0000
  C   C50       1.0  0.40247  0.36683  0.33670  1.0000
  C   C51       1.0  0.41168  0.38231  0.17354  1.0000
  O   O33       1.0  0.42413  0.41112  0.12505  1.0000
  O   O34       1.0  0.40641  0.35204  0.13641  1.0000
  H   H17       1.0  0.39455  0.32853  0.16136  1.0000
  N   N18       1.0  0.63119  0.99526  0.26381  1.0000
  C   C52       1.0  0.65167  0.03488  0.25531  1.0000
  C   C53       1.0  0.66715  0.05745  0.33502  1.0000
  C   C54       1.0  0.65225  0.05123  0.17180  1.0000
  O   O35       1.0  0.62386  0.03468  0.12210  1.0000
  O   O36       1.0  0.68285  0.07556  0.13460  1.0000
  H   H18       1.0  0.70625  0.08712  0.16010  1.0000
  C   C55       1.0  0.13771  0.50831  0.34050  1.0000
  C   C56       1.0  0.09977  0.47537  0.33985  1.0000
  C   C57       1.0  0.09345  0.43694  0.34231  1.0000
  C   C58       1.0  0.12621  0.43155  0.34808  1.0000
  C   C59       1.0  0.16483  0.46401  0.35145  1.0000
  C   C60       1.0  0.16984  0.50217  0.34883  1.0000
  H   H19       1.0  0.12179  0.40373  0.35020  1.0000
  H   H20       1.0  0.19748  0.52600  0.34844  1.0000
  H   H21       1.0  0.07610  0.47945  0.33676  1.0000
  C   C61       1.0  0.52551  0.65114  0.33986  1.0000
  C   C62       1.0  0.55851  0.64624  0.33948  1.0000
  C   C63       1.0  0.59691  0.67841  0.34201  1.0000
  C   C64       1.0  0.60220  0.71652  0.34738  1.0000
  C   C65       1.0  0.56968  0.72259  0.35031  1.0000
  C   C66       1.0  0.53156  0.68940  0.34782  1.0000
  H   H22       1.0  0.63000  0.73997  0.34952  1.0000
  H   H23       1.0  0.50770  0.69316  0.34728  1.0000
  H   H24       1.0  0.55451  0.61852  0.33666  1.0000
  C   C67       1.0  0.38260  0.89619  0.34031  1.0000
  C   C68       1.0  0.38745  0.93408  0.34065  1.0000
  C   C69       1.0  0.35526  0.94028  0.34325  1.0000
  C   C70       1.0  0.31716  0.90743  0.34824  1.0000
  C   C71       1.0  0.31113  0.86885  0.35080  1.0000
  C   C72       1.0  0.34434  0.86396  0.34802  1.0000
  H   H25       1.0  0.29369  0.91174  0.35041  1.0000
  H   H26       1.0  0.34058  0.83634  0.34706  1.0000
  H   H27       1.0  0.41515  0.95783  0.33803  1.0000
  C   C73       1.0  0.89273  0.52861  0.34103  1.0000
  C   C74       1.0  0.93067  0.56156  0.34037  1.0000
  C   C75       1.0  0.93699  0.59999  0.34284  1.0000
  C   C76       1.0  0.90422  0.60537  0.34838  1.0000
  C   C77       1.0  0.86560  0.57291  0.35151  1.0000
  C   C78       1.0  0.86058  0.53474  0.34908  1.0000
  H   H28       1.0  0.90862  0.63319  0.35041  1.0000
  H   H29       1.0  0.83294  0.51092  0.34870  1.0000
  H   H30       1.0  0.95434  0.55748  0.33723  1.0000
  C   C79       1.0  0.50507  0.38593  0.34138  1.0000
  C   C80       1.0  0.47210  0.39089  0.34082  1.0000
  C   C81       1.0  0.43368  0.35875  0.34318  1.0000
  C   C82       1.0  0.42834  0.32061  0.34874  1.0000
  C   C83       1.0  0.46082  0.31448  0.35206  1.0000
  C   C84       1.0  0.49896  0.34767  0.34951  1.0000
  H   H31       1.0  0.40052  0.29719  0.35077  1.0000
  H   H32       1.0  0.52282  0.34390  0.34914  1.0000
  H   H33       1.0  0.47614  0.41862  0.33781  1.0000
  C   C85       1.0  0.64789  0.14084  0.33979  1.0000
  C   C86       1.0  0.64300  0.10293  0.33920  1.0000
  C   C87       1.0  0.67517  0.09670  0.34155  1.0000
  C   C88       1.0  0.71328  0.12952  0.34696  1.0000
  C   C89       1.0  0.71934  0.16810  0.35017  1.0000
  C   C90       1.0  0.68615  0.17304  0.34782  1.0000
  H   H34       1.0  0.73674  0.12519  0.34892  1.0000
  H   H35       1.0  0.68991  0.20066  0.34753  1.0000
  H   H36       1.0  0.61528  0.07922  0.33630  1.0000
  C   C91       1.0  0.50741  0.14467  0.34454  1.0000
  C   C92       1.0  0.47415  0.10697  0.34105  1.0000
  C   C93       1.0  0.43588  0.10114  0.34512  1.0000
  C   C94       1.0  0.43104  0.13423  0.35259  1.0000
  C   C95       1.0  0.46382  0.17260  0.35710  1.0000
  C   C96       1.0  0.50169  0.17709  0.35134  1.0000
  H   H37       1.0  0.40340  0.13025  0.35630  1.0000
  H   H38       1.0  0.52570  0.20456  0.35021  1.0000
  H   H39       1.0  0.47791  0.08310  0.33753  1.0000
  C   C97       1.0  0.64937  0.52644  0.34478  1.0000
  C   C98       1.0  0.64489  0.55967  0.34097  1.0000
  C   C99       1.0  0.67732  0.59796  0.34445  1.0000
  C   C100      1.0  0.71527  0.60285  0.35161  1.0000
  C   C101      1.0  0.72088  0.57010  0.35646  1.0000
  C   C102      1.0  0.68752  0.53220  0.35140  1.0000
  H   H40       1.0  0.73894  0.63050  0.35490  1.0000
  H   H41       1.0  0.69103  0.50821  0.35071  1.0000
  H   H42       1.0  0.61725  0.55589  0.33766  1.0000
  C   C103      1.0  0.88897  0.38436  0.34433  1.0000
  C   C104      1.0  0.92669  0.38888  0.34040  1.0000
  C   C105      1.0  0.93259  0.35647  0.34379  1.0000
  C   C106      1.0  0.89954  0.31851  0.35097  1.0000
  C   C107      1.0  0.86117  0.31286  0.35593  1.0000
  C   C108      1.0  0.85659  0.34620  0.35108  1.0000
  H   H43       1.0  0.90355  0.29484  0.35413  1.0000
  H   H44       1.0  0.82908  0.34267  0.35050  1.0000
  H   H45       1.0  0.95052  0.41652  0.33702  1.0000
  C   C109      1.0  0.52312  0.89229  0.34284  1.0000
  C   C110      1.0  0.55638  0.93000  0.33917  1.0000
  C   C111      1.0  0.59468  0.93588  0.34287  1.0000
  C   C112      1.0  0.59956  0.90282  0.35016  1.0000
  C   C113      1.0  0.56680  0.86446  0.35499  1.0000
  C   C114      1.0  0.52890  0.85991  0.34973  1.0000
  H   H46       1.0  0.62721  0.90680  0.35367  1.0000
  H   H47       1.0  0.50492  0.83241  0.34898  1.0000
  H   H48       1.0  0.55262  0.95387  0.33580  1.0000
  C   C115      1.0  0.38121  0.51064  0.34427  1.0000
  C   C116      1.0  0.38566  0.47738  0.34067  1.0000
  C   C117      1.0  0.35322  0.43910  0.34457  1.0000
  C   C118      1.0  0.31529  0.43425  0.35206  1.0000
  C   C119      1.0  0.30969  0.46702  0.35672  1.0000
  C   C120      1.0  0.34307  0.50490  0.35107  1.0000
  H   H49       1.0  0.29163  0.40661  0.35570  1.0000
  H   H50       1.0  0.33959  0.52890  0.34999  1.0000
  H   H51       1.0  0.41328  0.48115  0.33724  1.0000
  C   C121      1.0  0.14152  0.65259  0.34406  1.0000
  C   C122      1.0  0.10378  0.64804  0.34027  1.0000
  C   C123      1.0  0.09783  0.68041  0.34402  1.0000
  C   C124      1.0  0.13085  0.71839  0.35133  1.0000
  C   C125      1.0  0.16925  0.72408  0.35611  1.0000
  C   C126      1.0  0.17387  0.69076  0.35086  1.0000
  H   H52       1.0  0.12681  0.74201  0.35479  1.0000
  H   H53       1.0  0.20138  0.69431  0.35010  1.0000
  H   H54       1.0  0.07996  0.62038  0.33687  1.0000
  C   C127      1.0  0.27169  0.46290  0.36472  1.0000
  N   N19       1.0  0.22682  0.48235  0.41654  1.0000
  C   C128      1.0  0.26227  0.48488  0.42532  1.0000
  C   C129      1.0  0.28680  0.50837  0.49368  1.0000
  O   O37       1.0  0.29640  0.49253  0.55093  1.0000
  O   O38       1.0  0.28809  0.53884  0.51875  1.0000
  H   H55       1.0  0.28152  0.55306  0.48469  1.0000
  C   C130      1.0  0.57094  0.83060  0.36296  1.0000
  N   N20       1.0  0.55187  0.76654  0.41601  1.0000
  C   C131      1.0  0.54944  0.79953  0.42468  1.0000
  C   C132      1.0  0.52647  0.80097  0.49385  1.0000
  O   O39       1.0  0.54257  0.82709  0.54951  1.0000
  O   O40       1.0  0.49632  0.77194  0.52080  1.0000
  H   H56       1.0  0.48197  0.75075  0.48802  1.0000
  C   C133      1.0  0.20309  0.76211  0.36391  1.0000
  N   N21       1.0  0.26724  0.80713  0.41658  1.0000
  C   C134      1.0  0.23424  0.77173  0.42542  1.0000
  C   C135      1.0  0.23284  0.74740  0.49479  1.0000
  O   O41       1.0  0.20709  0.73808  0.55110  1.0000
  O   O42       1.0  0.26188  0.74601  0.52049  1.0000
  H   H57       1.0  0.28271  0.75235  0.48671  1.0000
  C   C136      1.0  0.75889  0.57423  0.36423  1.0000
  N   N22       1.0  0.80393  0.55525  0.41743  1.0000
  C   C137      1.0  0.76852  0.55284  0.42612  1.0000
  C   C138      1.0  0.74413  0.52996  0.49542  1.0000
  O   O43       1.0  0.73572  0.54700  0.55214  1.0000
  O   O44       1.0  0.74327  0.50001  0.52280  1.0000
  H   H58       1.0  0.74930  0.48518  0.48945  1.0000
  C   C139      1.0  0.45971  0.20650  0.36518  1.0000
  N   N23       1.0  0.47921  0.27083  0.41694  1.0000
  C   C140      1.0  0.48175  0.23792  0.42566  1.0000
  C   C141      1.0  0.50529  0.23688  0.49393  1.0000
  O   O45       1.0  0.48947  0.21147  0.55126  1.0000
  O   O46       1.0  0.53578  0.26606  0.51886  1.0000
  H   H59       1.0  0.54999  0.28684  0.48472  1.0000
  C   C142      1.0  0.82733  0.27483  0.36357  1.0000
  N   N24       1.0  0.76330  0.22968  0.41654  1.0000
  C   C143      1.0  0.79628  0.26509  0.42548  1.0000
  C   C144      1.0  0.79779  0.28929  0.49520  1.0000
  O   O47       1.0  0.82382  0.29891  0.55093  1.0000
  O   O48       1.0  0.76875  0.29026  0.52268  1.0000
  H   H60       1.0  0.74759  0.28365  0.48993  1.0000
  N   N25       1.0  0.16264  0.57295  0.39884  1.0000
  C   C145      1.0  0.16580  0.60877  0.40562  1.0000
  C   C146      1.0  0.14571  0.61887  0.34121  1.0000
  C   C147      1.0  0.18525  0.63071  0.48065  1.0000
  O   O49       1.0  0.22080  0.65029  0.47522  1.0000
  O   O50       1.0  0.17008  0.64319  0.53421  1.0000
  H   H61       1.0  0.14457  0.63253  0.54261  1.0000
  N   N26       1.0  0.46088  0.61151  0.39828  1.0000
  C   C148      1.0  0.42507  0.57885  0.40525  1.0000
  C   C149      1.0  0.41497  0.54852  0.34124  1.0000
  C   C150      1.0  0.40309  0.57655  0.48005  1.0000
  O   O51       1.0  0.38363  0.59264  0.47420  1.0000
  O   O52       1.0  0.39057  0.54905  0.53401  1.0000
  H   H62       1.0  0.40117  0.53416  0.54273  1.0000
  N   N27       1.0  0.42198  0.87046  0.39652  1.0000
  C   C151      1.0  0.45458  0.86705  0.40285  1.0000
  C   C152      1.0  0.48521  0.88818  0.34008  1.0000
  C   C153      1.0  0.45774  0.84673  0.47567  1.0000
  O   O53       1.0  0.42951  0.81493  0.49376  1.0000
  O   O54       1.0  0.47977  0.86389  0.53975  1.0000
  H   H63       1.0  0.49943  0.88831  0.53857  1.0000
  N   N28       1.0  0.86799  0.46406  0.39963  1.0000
  C   C154      1.0  0.86487  0.42825  0.40639  1.0000
  C   C155      1.0  0.88480  0.41809  0.34166  1.0000
  C   C156      1.0  0.84564  0.40637  0.48167  1.0000
  O   O55       1.0  0.81009  0.38667  0.47662  1.0000
  O   O56       1.0  0.86100  0.39400  0.53497  1.0000
  H   H64       1.0  0.88654  0.40475  0.54307  1.0000
  N   N29       1.0  0.56974  0.42565  0.39963  1.0000
  C   C157      1.0  0.60556  0.45832  0.40637  1.0000
  C   C158      1.0  0.61561  0.48855  0.34207  1.0000
  C   C159      1.0  0.62757  0.46078  0.48125  1.0000
  O   O57       1.0  0.64706  0.44473  0.47564  1.0000
  O   O58       1.0  0.64016  0.48844  0.53479  1.0000
  H   H65       1.0  0.62956  0.50334  0.54332  1.0000
  N   N30       1.0  0.60829  0.16585  0.39835  1.0000
  C   C160      1.0  0.57564  0.16901  0.40540  1.0000
  C   C161      1.0  0.54527  0.14876  0.34145  1.0000
  C   C162      1.0  0.57337  0.18869  0.48022  1.0000
  O   O59       1.0  0.58947  0.22424  0.47438  1.0000
  O   O60       1.0  0.54587  0.17372  0.53420  1.0000
  H   H66       1.0  0.53097  0.14824  0.54292  1.0000
  C   C163      1.0  0.97188  0.36429  0.34268  1.0000
  N   N31       1.0  0.03414  0.39221  0.41471  1.0000
  C   C164      1.0  0.99444  0.37096  0.42212  1.0000
  C   C165      1.0  0.97786  0.36129  0.50751  1.0000
  O   O61       1.0  0.99301  0.38513  0.56835  1.0000
  O   O62       1.0  0.95905  0.32694  0.53295  1.0000
  H   H67       1.0  0.94962  0.30625  0.49712  1.0000
  C   C166      1.0  0.66953  0.62946  0.34339  1.0000
  N   N32       1.0  0.64119  0.66348  0.41489  1.0000
  C   C167      1.0  0.66239  0.64500  0.42279  1.0000
  C   C168      1.0  0.67143  0.63765  0.50844  1.0000
  O   O63       1.0  0.64730  0.62899  0.56860  1.0000
  O   O64       1.0  0.70561  0.65264  0.53485  1.0000
  H   H68       1.0  0.72650  0.66385  0.49965  1.0000
  C   C169      1.0  0.40440  0.06185  0.34402  1.0000
  N   N33       1.0  0.37038  0.99952  0.41597  1.0000
  C   C170      1.0  0.38898  0.03923  0.42359  1.0000
  C   C171      1.0  0.39645  0.05570  0.50921  1.0000
  O   O65       1.0  0.40587  0.04058  0.56868  1.0000
  O   O66       1.0  0.38116  0.07459  0.53572  1.0000
  H   H69       1.0  0.36966  0.08401  0.50065  1.0000
  C   C172      1.0  0.05848  0.67246  0.34288  1.0000
  N   N34       1.0  0.99629  0.64441  0.41515  1.0000
  C   C173      1.0  0.03600  0.66557  0.42256  1.0000
  C   C174      1.0  0.05266  0.67505  0.50793  1.0000
  O   O67       1.0  0.03740  0.65077  0.56790  1.0000
  O   O68       1.0  0.07116  0.70926  0.53424  1.0000
  H   H70       1.0  0.08057  0.73008  0.49886  1.0000
  C   C175      1.0  0.36100  0.40759  0.34345  1.0000
  N   N35       1.0  0.38890  0.37322  0.41546  1.0000
  C   C176      1.0  0.36763  0.39166  0.42286  1.0000
  C   C177      1.0  0.35789  0.39850  0.50823  1.0000
  O   O69       1.0  0.38173  0.40723  0.56910  1.0000
  O   O70       1.0  0.32353  0.38280  0.53363  1.0000
  H   H71       1.0  0.30286  0.37149  0.49775  1.0000
  C   C178      1.0  0.62616  0.97518  0.34186  1.0000
  N   N36       1.0  0.66031  0.03740  0.41383  1.0000
  C   C179      1.0  0.64182  0.99770  0.42142  1.0000
  C   C180      1.0  0.63456  0.98119  0.50692  1.0000
  O   O71       1.0  0.62583  0.99649  0.56732  1.0000
  O   O72       1.0  0.64979  0.96218  0.53302  1.0000
  H   H72       1.0  0.66106  0.95262  0.49762  1.0000
