data_image0
_chemical_formula_structural       C3NC3NC5NC5NC20H18N5C3H3CHNC3H3CHC8H8CNCHCHCNCHCH
_chemical_formula_sum              "C58 N12 H38"
_cell_length_a       25.5788
_cell_length_b       25.5767
_cell_length_c       14.6651
_cell_angle_alpha    90
_cell_angle_beta     90
_cell_angle_gamma    89.97

_space_group_name_H-M_alt    "P 1"
_space_group_IT_number       1

loop_
  _space_group_symop_operation_xyz
  'x, y, z'

loop_
  _atom_site_type_symbol
  _atom_site_label
  _atom_site_symmetry_multiplicity
  _atom_site_fract_x
  _atom_site_fract_y
  _atom_site_fract_z
  _atom_site_occupancy
  C   C1        1.0  0.91294  0.14860  0.33487  1.0000
  C   C2        1.0  0.87463  0.11056  0.33532  1.0000
  C   C3        1.0  0.89893  0.06161  0.33572  1.0000
  N   N1        1.0  0.95101  0.07195  0.33616  1.0000
  C   C4        1.0  0.96172  0.12396  0.33595  1.0000
  C   C5        1.0  0.01079  0.15037  0.33621  1.0000
  C   C6        1.0  0.06022  0.12488  0.33769  1.0000
  N   N2        1.0  0.07024  0.07292  0.33934  1.0000
  C   C7        1.0  0.12213  0.06254  0.34090  1.0000
  C   C8        1.0  0.14703  0.11113  0.33990  1.0000
  C   C9        1.0  0.10899  0.14945  0.33849  1.0000
  C   C10       1.0  0.14727  0.01293  0.34241  1.0000
  C   C11       1.0  0.12051  0.96405  0.34251  1.0000
  N   N3        1.0  0.06843  0.95371  0.34234  1.0000
  C   C12       1.0  0.05773  0.90170  0.34262  1.0000
  C   C13       1.0  0.10651  0.87705  0.34281  1.0000
  C   C14       1.0  0.14481  0.91509  0.34333  1.0000
  C   C15       1.0  0.00867  0.87529  0.34217  1.0000
  C   C16       1.0  0.95925  0.90080  0.34046  1.0000
  N   N4        1.0  0.94922  0.95276  0.33922  1.0000
  C   C17       1.0  0.89734  0.96313  0.33781  1.0000
  C   C18       1.0  0.87245  0.91453  0.33781  1.0000
  C   C19       1.0  0.91049  0.87623  0.34007  1.0000
  C   C20       1.0  0.87216  0.01273  0.33623  1.0000
  C   C21       1.0  0.81618  0.01333  0.33587  1.0000
  C   C22       1.0  0.70433  0.01325  0.33499  1.0000
  C   C23       1.0  0.73297  0.02247  0.25420  1.0000
  C   C24       1.0  0.78808  0.02252  0.25441  1.0000
  C   C25       1.0  0.00892  0.81931  0.34221  1.0000
  C   C26       1.0  0.00889  0.70744  0.34183  1.0000
  C   C27       1.0  0.99945  0.73609  0.26078  1.0000
  C   C28       1.0  0.99968  0.79117  0.26087  1.0000
  C   C29       1.0  0.20324  0.01228  0.34245  1.0000
  C   C30       1.0  0.23124  0.00219  0.26127  1.0000
  C   C31       1.0  0.28631  0.00157  0.26102  1.0000
  C   C32       1.0  0.31510  0.01145  0.34175  1.0000
  C   C33       1.0  0.01055  0.20635  0.33577  1.0000
  C   C34       1.0  0.02007  0.23452  0.25453  1.0000
  C   C35       1.0  0.01025  0.31819  0.33518  1.0000
  C   C36       1.0  0.01989  0.28964  0.25445  1.0000
  H   H1        1.0  0.02694  0.30889  0.19451  1.0000
  H   H2        1.0  0.02721  0.21507  0.19484  1.0000
  H   H3        1.0  0.90559  0.18786  0.33414  1.0000
  H   H4        1.0  0.83543  0.11819  0.33529  1.0000
  H   H5        1.0  0.97744  0.04534  0.33634  1.0000
  H   H6        1.0  0.04201  0.98033  0.34243  1.0000
  H   H7        1.0  0.11638  0.18870  0.33796  1.0000
  H   H8        1.0  0.18633  0.11825  0.34028  1.0000
  H   H9        1.0  0.21164  0.99503  0.20170  1.0000
  H   H10       1.0  0.30503  0.99358  0.20111  1.0000
  H   H11       1.0  0.18401  0.90745  0.34399  1.0000
  H   H12       1.0  0.11386  0.83779  0.34271  1.0000
  H   H13       1.0  0.83316  0.90738  0.33662  1.0000
  H   H14       1.0  0.90308  0.83698  0.34098  1.0000
  H   H15       1.0  0.99274  0.81066  0.20112  1.0000
  H   H16       1.0  0.99198  0.71726  0.20077  1.0000
  H   H17       1.0  0.80759  0.02915  0.19461  1.0000
  H   H18       1.0  0.71378  0.02915  0.19407  1.0000
  N   N5        1.0  0.00903  0.65518  0.34727  1.0000
  N   N6        1.0  0.36736  0.01154  0.34699  1.0000
  N   N7        1.0  0.01027  0.37036  0.32899  1.0000
  N   N8        1.0  0.65216  0.01309  0.32862  1.0000
  N   N9        1.0  0.01062  0.47436  0.27360  1.0000
  C   C37       1.0  0.01098  0.52468  0.24312  1.0000
  C   C38       1.0  0.00917  0.56567  0.30882  1.0000
  C   C39       1.0  0.01323  0.53298  0.14331  1.0000
  H   H19       1.0  0.01452  0.49590  0.10640  1.0000
  H   H20       1.0  0.04820  0.55522  0.12576  1.0000
  H   H21       1.0  0.97869  0.55446  0.12080  1.0000
  C   C40       1.0  0.00911  0.61869  0.28666  1.0000
  H   H22       1.0  0.00957  0.62881  0.22140  1.0000
  N   N10       1.0  0.54814  0.01250  0.27313  1.0000
  C   C41       1.0  0.49780  0.01246  0.24267  1.0000
  C   C42       1.0  0.45683  0.01109  0.30843  1.0000
  C   C43       1.0  0.48947  0.01385  0.14282  1.0000
  H   H23       1.0  0.52653  0.01494  0.10585  1.0000
  H   H24       1.0  0.46708  0.04861  0.12441  1.0000
  H   H25       1.0  0.46813  0.97906  0.12121  1.0000
  C   C44       1.0  0.40382  0.01074  0.28633  1.0000
  H   H26       1.0  0.39366  0.01035  0.22109  1.0000
  C   C45       1.0  0.78772  0.00404  0.41688  1.0000
  C   C46       1.0  0.73263  0.00383  0.41638  1.0000
  C   C47       1.0  0.01795  0.79091  0.42339  1.0000
  C   C48       1.0  0.01791  0.73578  0.42301  1.0000
  C   C49       1.0  0.28689  0.02127  0.42279  1.0000
  C   C50       1.0  0.23177  0.02171  0.42335  1.0000
  C   C51       1.0  0.00076  0.23472  0.41670  1.0000
  C   C52       1.0  0.00043  0.28982  0.41634  1.0000
  H   H27       1.0  0.99269  0.30889  0.47603  1.0000
  H   H28       1.0  0.99357  0.21538  0.47651  1.0000
  H   H29       1.0  0.21257  0.02906  0.48321  1.0000
  H   H30       1.0  0.30641  0.02837  0.48245  1.0000
  H   H31       1.0  0.02458  0.81021  0.48341  1.0000
  H   H32       1.0  0.02460  0.71636  0.48290  1.0000
  H   H33       1.0  0.71351  0.99633  0.47610  1.0000
  H   H34       1.0  0.80700  0.99697  0.47679  1.0000
  C   C53       1.0  0.00865  0.45992  0.36279  1.0000
  N   N11       1.0  0.00716  0.55115  0.39817  1.0000
  C   C54       1.0  0.00685  0.50079  0.42744  1.0000
  H   H35       1.0  0.00524  0.49339  0.49588  1.0000
  C   C55       1.0  0.00818  0.40758  0.38809  1.0000
  H   H36       1.0  0.00643  0.39881  0.45402  1.0000
  C   C56       1.0  0.56259  0.01134  0.36235  1.0000
  N   N12       1.0  0.47138  0.00989  0.39782  1.0000
  C   C57       1.0  0.52174  0.00996  0.42706  1.0000
  H   H37       1.0  0.52915  0.00896  0.49553  1.0000
  C   C58       1.0  0.61493  0.01122  0.38768  1.0000
  H   H38       1.0  0.62367  0.00985  0.45365  1.0000
