data_image0
_chemical_formula_structural       C5NC2HNHNHCNC2HNHNHCNC2HNHNHCN2CNC2O3CN2CNC2O3C4HC5HO2NHC4HC5HO2NHC4HC5HO2NH
_chemical_formula_sum              "C48 N18 H18 O12"
_cell_length_a       29.0847
_cell_length_b       29.0853
_cell_length_c       15.0755
_cell_angle_alpha    90
_cell_angle_beta     90
_cell_angle_gamma    120.001

_space_group_name_H-M_alt    "P 1"
_space_group_IT_number       1

loop_
  _space_group_symop_operation_xyz
  'x, y, z'

loop_
  _atom_site_type_symbol
  _atom_site_label
  _atom_site_symmetry_multiplicity
  _atom_site_fract_x
  _atom_site_fract_y
  _atom_site_fract_z
  _atom_site_occupancy
  C   C1        1.0  0.36015  0.64057  0.27539  1.0000
  C   C2        1.0  0.37673  0.77373  0.28454  1.0000
  C   C3        1.0  0.62736  0.34859  0.36957  1.0000
  C   C4        1.0  0.62732  0.22276  0.36522  1.0000
  C   C5        1.0  0.53920  0.42754  0.29252  1.0000
  N   N1        1.0  0.50626  0.44758  0.28567  1.0000
  C   C6        1.0  0.40474  0.50576  0.24486  1.0000
  C   C7        1.0  0.40086  0.54032  0.30588  1.0000
  H   H1        1.0  0.54141  0.40603  0.24075  1.0000
  N   N2        1.0  0.43760  0.48647  0.26210  1.0000
  H   H2        1.0  0.38515  0.49708  0.18551  1.0000
  N   N3        1.0  0.37140  0.56344  0.28641  1.0000
  H   H3        1.0  0.33479  0.54008  0.26777  1.0000
  C   C8        1.0  0.56622  0.11041  0.29256  1.0000
  N   N4        1.0  0.54617  0.05743  0.28566  1.0000
  C   C9        1.0  0.48799  0.89775  0.24468  1.0000
  C   C10       1.0  0.45342  0.85928  0.30565  1.0000
  H   H4        1.0  0.58774  0.13415  0.24081  1.0000
  N   N5        1.0  0.50728  0.94988  0.26196  1.0000
  H   H5        1.0  0.49669  0.88685  0.18532  1.0000
  N   N6        1.0  0.43029  0.80671  0.28611  1.0000
  H   H6        1.0  0.45368  0.79345  0.26769  1.0000
  C   C11       1.0  0.88334  0.45455  0.29248  1.0000
  N   N7        1.0  0.93631  0.48750  0.28559  1.0000
  C   C12       1.0  0.09600  0.58901  0.24464  1.0000
  C   C13       1.0  0.13446  0.59292  0.30564  1.0000
  H   H7        1.0  0.85959  0.45231  0.24072  1.0000
  N   N8        1.0  0.04386  0.55616  0.26192  1.0000
  H   H8        1.0  0.10690  0.60858  0.18526  1.0000
  N   N9        1.0  0.18703  0.62235  0.28609  1.0000
  H   H9        1.0  0.20031  0.65900  0.26763  1.0000
  C   C14       1.0  0.27541  0.63357  0.27524  1.0000
  N   N10       1.0  0.30639  0.61090  0.27630  1.0000
  N   N11       1.0  0.38283  0.69422  0.27628  1.0000
  C   C15       1.0  0.35317  0.71832  0.27522  1.0000
  N   N12       1.0  0.29952  0.68734  0.27615  1.0000
  C   C16       1.0  0.39198  0.61700  0.28482  1.0000
  C   C17       1.0  0.22000  0.60176  0.28456  1.0000
  O   O1        1.0  0.34380  0.79359  0.29677  1.0000
  O   O2        1.0  0.20012  0.54896  0.29688  1.0000
  O   O3        1.0  0.44477  0.64993  0.29722  1.0000
  C   C18       1.0  0.71623  0.36636  0.36958  1.0000
  N   N13       1.0  0.68041  0.38328  0.36896  1.0000
  N   N14       1.0  0.61044  0.29585  0.36902  1.0000
  C   C19       1.0  0.64514  0.27750  0.36963  1.0000
  N   N15       1.0  0.69788  0.31332  0.36903  1.0000
  C   C20       1.0  0.59045  0.36642  0.36510  1.0000
  C   C21       1.0  0.77097  0.40329  0.36509  1.0000
  O   O4        1.0  0.66424  0.20823  0.35005  1.0000
  O   O5        1.0  0.78549  0.45473  0.34991  1.0000
  O   O6        1.0  0.53900  0.32951  0.34993  1.0000
  C   C22       1.0  0.57055  0.43726  0.36924  1.0000
  C   C23       1.0  0.50132  0.47742  0.35015  1.0000
  C   C24       1.0  0.53216  0.48931  0.42880  1.0000
  C   C25       1.0  0.56728  0.46921  0.43662  1.0000
  H   H10       1.0  0.59011  0.47691  0.49232  1.0000
  C   C26       1.0  0.46655  0.49737  0.33793  1.0000
  C   C27       1.0  0.42893  0.55096  0.38676  1.0000
  C   C28       1.0  0.46239  0.52983  0.40415  1.0000
  C   C29       1.0  0.49224  0.54073  0.48325  1.0000
  C   C30       1.0  0.52693  0.52060  0.49548  1.0000
  H   H11       1.0  0.42556  0.57522  0.43228  1.0000
  O   O7        1.0  0.48860  0.57103  0.54806  1.0000
  O   O8        1.0  0.55533  0.53224  0.57166  1.0000
  N   N16       1.0  0.60470  0.41825  0.37716  1.0000
  H   H12       1.0  0.64019  0.44286  0.39942  1.0000
  C   C31       1.0  0.55648  0.13201  0.36930  1.0000
  C   C32       1.0  0.51632  0.02262  0.35010  1.0000
  C   C33       1.0  0.50441  0.04155  0.42876  1.0000
  C   C34       1.0  0.52452  0.09677  0.43664  1.0000
  H   H13       1.0  0.51680  0.11187  0.49236  1.0000
  C   C35       1.0  0.49638  0.96791  0.33782  1.0000
  C   C36       1.0  0.44276  0.87668  0.38654  1.0000
  C   C37       1.0  0.46388  0.93126  0.40399  1.0000
  C   C38       1.0  0.45297  0.95018  0.48311  1.0000
  C   C39       1.0  0.47310  0.00500  0.49541  1.0000
  H   H14       1.0  0.41848  0.84904  0.43202  1.0000
  O   O9        1.0  0.42265  0.91621  0.54788  1.0000
  O   O10       1.0  0.46145  0.02173  0.57159  1.0000
  N   N17       1.0  0.57549  0.18517  0.37726  1.0000
  H   H15       1.0  0.55087  0.19605  0.39950  1.0000
  C   C40       1.0  0.86173  0.42322  0.36924  1.0000
  C   C41       1.0  0.97111  0.49247  0.35006  1.0000
  C   C42       1.0  0.95219  0.46165  0.42874  1.0000
  C   C43       1.0  0.89697  0.42652  0.43661  1.0000
  H   H16       1.0  0.88186  0.40371  0.49233  1.0000
  C   C44       1.0  0.02582  0.52724  0.33779  1.0000
  C   C45       1.0  0.11706  0.56489  0.38654  1.0000
  C   C46       1.0  0.06247  0.53143  0.40399  1.0000
  C   C47       1.0  0.04355  0.50161  0.48312  1.0000
  C   C48       1.0  0.98873  0.46692  0.49541  1.0000
  H   H17       1.0  0.14470  0.56827  0.43205  1.0000
  O   O11       1.0  0.07751  0.50528  0.54792  1.0000
  O   O12       1.0  0.97199  0.43854  0.57160  1.0000
  N   N18       1.0  0.80857  0.38906  0.37720  1.0000
  H   H18       1.0  0.79769  0.35358  0.39947  1.0000
