data_image0
_chemical_formula_structural       C3O2HC3H2NC3O2HC3H2NO2NC4O2HNC4O2HOHC4H2OHOHC4H2OHNC3O2HNC3O2HCNC2O2HCNC2O2HCNC2OC3HCHC6H3C6H3CNC2O2HCNC2O2HNC3ONC3O2HNC3O2HNC3O2HNC3O2HCNC2O2HCNC2O2HCNC2OC3HCHC6H3C6H3CNC2O2HCNC2O2HNC3ONC3O2HNC3O2HNC3O2HNC3O2HNC3OHCNC2O2HCNC2O2HCNC2O2HC6H3C6H3C6H3C6H3CNC2O2HCNC2O2HCNC2O2HNC3O2HNC3O2HNC3O2HNC3O2HNC3O2HNC3OHCNC2O2HCNC2O2HCNC2O2HC6H3C6H3C6H3C6H3CNC2O2HCNC2O2HCNC2O2HNC3O2HNC3O2HNC3O2H
_chemical_formula_sum              "C240 O96 H96 N48"
_cell_length_a       45.271
_cell_length_b       45.2922
_cell_length_c       14.8399
_cell_angle_alpha    90
_cell_angle_beta     90
_cell_angle_gamma    119.989

_space_group_name_H-M_alt    "P 1"
_space_group_IT_number       1

loop_
  _space_group_symop_operation_xyz
  'x, y, z'

loop_
  _atom_site_type_symbol
  _atom_site_label
  _atom_site_symmetry_multiplicity
  _atom_site_fract_x
  _atom_site_fract_y
  _atom_site_fract_z
  _atom_site_occupancy
  C   C1        1.0  0.09871  0.06831  0.27940  1.0000
  C   C2        1.0  0.07846  0.04176  0.34101  1.0000
  C   C3        1.0  0.08520  0.07752  0.20793  1.0000
  O   O1        1.0  0.09848  0.10774  0.18875  1.0000
  O   O2        1.0  0.07013  0.05761  0.14516  1.0000
  H   H1        1.0  0.06191  0.03529  0.14663  1.0000
  C   C4        1.0  0.04192  0.02299  0.34270  1.0000
  C   C5        1.0  0.02256  0.03976  0.34349  1.0000
  C   C6        1.0  0.02408  0.48688  0.34335  1.0000
  H   H2        1.0  0.03769  0.47440  0.34349  1.0000
  H   H3        1.0  0.03504  0.06585  0.34380  1.0000
  N   N1        1.0  0.09564  0.03417  0.40362  1.0000
  C   C7        1.0  0.09871  0.56831  0.27940  1.0000
  C   C8        1.0  0.07846  0.54176  0.34101  1.0000
  C   C9        1.0  0.08520  0.57752  0.20793  1.0000
  O   O3        1.0  0.09848  0.60774  0.18875  1.0000
  O   O4        1.0  0.07013  0.55761  0.14516  1.0000
  H   H4        1.0  0.06191  0.53529  0.14663  1.0000
  C   C10       1.0  0.04192  0.52299  0.34270  1.0000
  C   C11       1.0  0.02256  0.53976  0.34349  1.0000
  C   C12       1.0  0.02408  0.98688  0.34335  1.0000
  H   H5        1.0  0.03769  0.97440  0.34349  1.0000
  H   H6        1.0  0.03504  0.56585  0.34380  1.0000
  N   N2        1.0  0.09564  0.53417  0.40362  1.0000
  O   O5        1.0  0.01550  0.41083  0.18621  1.0000
  O   O6        1.0  0.01550  0.91083  0.18621  1.0000
  N   N3        1.0  0.13333  0.08378  0.28681  1.0000
  C   C13       1.0  0.18706  0.09452  0.34660  1.0000
  C   C14       1.0  0.15052  0.07621  0.34945  1.0000
  C   C15       1.0  0.13025  0.04972  0.41122  1.0000
  C   C16       1.0  0.14372  0.04035  0.48244  1.0000
  O   O7        1.0  0.13016  0.01020  0.50266  1.0000
  O   O8        1.0  0.15937  0.06023  0.54478  1.0000
  H   H7        1.0  0.16791  0.08260  0.54316  1.0000
  N   N4        1.0  0.13333  0.58378  0.28681  1.0000
  C   C17       1.0  0.18706  0.59452  0.34660  1.0000
  C   C18       1.0  0.15052  0.57621  0.34945  1.0000
  C   C19       1.0  0.13025  0.54972  0.41122  1.0000
  C   C20       1.0  0.14372  0.54035  0.48244  1.0000
  O   O9        1.0  0.13016  0.51020  0.50266  1.0000
  O   O10       1.0  0.15937  0.56023  0.54478  1.0000
  H   H8        1.0  0.16791  0.58260  0.54316  1.0000
  O   O11       1.0  0.23933  0.18096  0.14373  1.0000
  H   H9        1.0  0.22215  0.17932  0.17612  1.0000
  C   C21       1.0  0.24187  0.09498  0.34546  1.0000
  C   C22       1.0  0.24149  0.14916  0.34096  1.0000
  C   C23       1.0  0.20542  0.13074  0.34233  1.0000
  C   C24       1.0  0.20584  0.07704  0.34725  1.0000
  H   H10       1.0  0.19251  0.14392  0.34226  1.0000
  H   H11       1.0  0.19326  0.05097  0.34828  1.0000
  O   O12       1.0  0.24022  0.06243  0.54377  1.0000
  H   H12       1.0  0.22300  0.04660  0.51214  1.0000
  O   O13       1.0  0.23933  0.68096  0.14373  1.0000
  H   H13       1.0  0.22215  0.67932  0.17612  1.0000
  C   C25       1.0  0.24187  0.59498  0.34546  1.0000
  C   C26       1.0  0.24149  0.64916  0.34096  1.0000
  C   C27       1.0  0.20542  0.63074  0.34233  1.0000
  C   C28       1.0  0.20584  0.57704  0.34725  1.0000
  H   H14       1.0  0.19251  0.64392  0.34226  1.0000
  H   H15       1.0  0.19327  0.55097  0.34828  1.0000
  O   O14       1.0  0.24022  0.56243  0.54377  1.0000
  H   H16       1.0  0.22300  0.54660  0.51214  1.0000
  N   N5        1.0  0.42583  0.05229  0.28642  1.0000
  C   C29       1.0  0.44127  0.03313  0.27906  1.0000
  C   C30       1.0  0.46769  0.03928  0.34104  1.0000
  C   C31       1.0  0.43217  0.01051  0.20746  1.0000
  O   O15       1.0  0.40205  0.99394  0.18673  1.0000
  O   O16       1.0  0.45217  0.01524  0.14499  1.0000
  H   H17       1.0  0.47453  0.02917  0.14687  1.0000
  N   N6        1.0  0.45722  0.37618  0.28625  1.0000
  C   C32       1.0  0.47633  0.41078  0.27883  1.0000
  C   C33       1.0  0.47017  0.43101  0.34090  1.0000
  C   C34       1.0  0.49890  0.42432  0.20712  1.0000
  O   O17       1.0  0.51550  0.41083  0.18621  1.0000
  O   O18       1.0  0.49409  0.43957  0.14474  1.0000
  H   H18       1.0  0.48012  0.44795  0.14675  1.0000
  C   C35       1.0  0.32422  0.07901  0.33918  1.0000
  N   N7        1.0  0.27746  0.07977  0.26850  1.0000
  C   C36       1.0  0.30659  0.07822  0.25922  1.0000
  C   C37       1.0  0.32039  0.08141  0.17355  1.0000
  O   O19       1.0  0.31493  0.09751  0.11625  1.0000
  O   O20       1.0  0.32833  0.06085  0.14365  1.0000
  H   H19       1.0  0.32991  0.04528  0.17602  1.0000
  C   C38       1.0  0.43075  0.24795  0.33879  1.0000
  N   N8        1.0  0.43003  0.20053  0.26778  1.0000
  C   C39       1.0  0.43171  0.23126  0.25877  1.0000
  C   C40       1.0  0.42868  0.24199  0.17317  1.0000
  O   O21       1.0  0.41276  0.22070  0.11518  1.0000
  O   O22       1.0  0.44925  0.27062  0.14394  1.0000
  H   H20       1.0  0.46476  0.28768  0.17667  1.0000
  C   C41       1.0  0.26165  0.18532  0.33904  1.0000
  N   N9        1.0  0.30918  0.23201  0.26843  1.0000
  C   C42       1.0  0.27844  0.20297  0.25913  1.0000
  C   C43       1.0  0.26794  0.18919  0.17344  1.0000
  O   O23       1.0  0.28940  0.19462  0.11584  1.0000
  C   C44       1.0  0.48643  0.02148  0.34278  1.0000
  C   C45       1.0  0.46966  0.48537  0.34342  1.0000
  C   C46       1.0  0.48795  0.46754  0.34267  1.0000
  H   H21       1.0  0.44356  0.47177  0.34363  1.0000
  C   C47       1.0  0.25917  0.13089  0.34263  1.0000
  H   H22       1.0  0.28536  0.14408  0.34194  1.0000
  C   C48       1.0  0.41459  0.14955  0.34510  1.0000
  C   C49       1.0  0.37867  0.13094  0.34224  1.0000
  C   C50       1.0  0.36040  0.09499  0.34072  1.0000
  C   C51       1.0  0.37882  0.07736  0.34220  1.0000
  C   C52       1.0  0.41505  0.09522  0.34635  1.0000
  C   C53       1.0  0.43255  0.13147  0.34692  1.0000
  H   H23       1.0  0.36563  0.05127  0.34229  1.0000
  H   H24       1.0  0.45863  0.14495  0.34791  1.0000
  H   H25       1.0  0.36546  0.14392  0.34146  1.0000
  C   C54       1.0  0.36008  0.26765  0.34537  1.0000
  C   C55       1.0  0.37874  0.25038  0.34241  1.0000
  C   C56       1.0  0.41470  0.26809  0.34073  1.0000
  C   C57       1.0  0.43230  0.30414  0.34207  1.0000
  C   C58       1.0  0.41439  0.32245  0.34639  1.0000
  C   C59       1.0  0.37813  0.30366  0.34719  1.0000
  H   H26       1.0  0.45840  0.31706  0.34192  1.0000
  H   H27       1.0  0.36461  0.31622  0.34832  1.0000
  H   H28       1.0  0.36578  0.22420  0.34168  1.0000
  C   C60       1.0  0.43334  0.07697  0.34922  1.0000
  N   N10       1.0  0.47521  0.06396  0.40381  1.0000
  C   C61       1.0  0.45973  0.08308  0.41127  1.0000
  C   C62       1.0  0.46897  0.10579  0.48272  1.0000
  O   O24       1.0  0.49910  0.12231  0.50339  1.0000
  O   O25       1.0  0.44897  0.10146  0.54485  1.0000
  H   H29       1.0  0.42659  0.08766  0.54292  1.0000
  C   C63       1.0  0.43261  0.35899  0.34920  1.0000
  N   N11       1.0  0.44555  0.41383  0.40382  1.0000
  C   C64       1.0  0.42649  0.37923  0.41133  1.0000
  C   C65       1.0  0.40383  0.36574  0.48295  1.0000
  O   O26       1.0  0.38697  0.37907  0.50265  1.0000
  O   O27       1.0  0.40841  0.35025  0.54506  1.0000
  H   H30       1.0  0.42240  0.34189  0.54315  1.0000
  N   N12       1.0  0.30974  0.07992  0.41865  1.0000
  C   C66       1.0  0.27915  0.07857  0.42787  1.0000
  C   C67       1.0  0.26222  0.07920  0.34798  1.0000
  C   C68       1.0  0.26887  0.08234  0.51341  1.0000
  O   O28       1.0  0.29046  0.09879  0.57030  1.0000
  N   N13       1.0  0.42960  0.23238  0.41814  1.0000
  C   C69       1.0  0.43089  0.20311  0.42723  1.0000
  C   C70       1.0  0.43031  0.18566  0.34712  1.0000
  C   C71       1.0  0.42689  0.18900  0.51279  1.0000
  O   O29       1.0  0.40974  0.19357  0.56873  1.0000
  O   O30       1.0  0.44656  0.18000  0.54341  1.0000
  H   H31       1.0  0.46264  0.17888  0.51222  1.0000
  N   N14       1.0  0.27713  0.19975  0.41848  1.0000
  C   C72       1.0  0.30639  0.23031  0.42771  1.0000
  C   C73       1.0  0.32397  0.24726  0.34782  1.0000
  C   C74       1.0  0.32049  0.24049  0.51323  1.0000
  O   O31       1.0  0.31538  0.21885  0.56992  1.0000
  O   O32       1.0  0.32926  0.26910  0.54385  1.0000
  H   H32       1.0  0.33064  0.28636  0.51240  1.0000
  N   N15       1.0  0.42583  0.55229  0.28642  1.0000
  C   C75       1.0  0.44128  0.53313  0.27906  1.0000
  C   C76       1.0  0.46769  0.53928  0.34104  1.0000
  C   C77       1.0  0.43217  0.51051  0.20746  1.0000
  O   O33       1.0  0.40205  0.49394  0.18673  1.0000
  O   O34       1.0  0.45217  0.51524  0.14499  1.0000
  H   H33       1.0  0.47453  0.52917  0.14687  1.0000
  N   N16       1.0  0.45722  0.87618  0.28625  1.0000
  C   C78       1.0  0.47633  0.91078  0.27883  1.0000
  C   C79       1.0  0.47017  0.93100  0.34090  1.0000
  C   C80       1.0  0.49890  0.92433  0.20712  1.0000
  O   O35       1.0  0.51550  0.91083  0.18621  1.0000
  O   O36       1.0  0.49409  0.93957  0.14474  1.0000
  H   H34       1.0  0.48012  0.94795  0.14675  1.0000
  C   C81       1.0  0.32422  0.57901  0.33918  1.0000
  N   N17       1.0  0.27747  0.57977  0.26850  1.0000
  C   C82       1.0  0.30659  0.57822  0.25922  1.0000
  C   C83       1.0  0.32039  0.58141  0.17355  1.0000
  O   O37       1.0  0.31493  0.59751  0.11625  1.0000
  O   O38       1.0  0.32833  0.56085  0.14365  1.0000
  H   H35       1.0  0.32991  0.54529  0.17602  1.0000
  C   C84       1.0  0.43075  0.74795  0.33879  1.0000
  N   N18       1.0  0.43004  0.70053  0.26778  1.0000
  C   C85       1.0  0.43172  0.73126  0.25877  1.0000
  C   C86       1.0  0.42868  0.74199  0.17317  1.0000
  O   O39       1.0  0.41276  0.72070  0.11518  1.0000
  O   O40       1.0  0.44925  0.77062  0.14394  1.0000
  H   H36       1.0  0.46476  0.78768  0.17667  1.0000
  C   C87       1.0  0.26166  0.68533  0.33904  1.0000
  N   N19       1.0  0.30918  0.73201  0.26843  1.0000
  C   C88       1.0  0.27844  0.70297  0.25913  1.0000
  C   C89       1.0  0.26794  0.68919  0.17344  1.0000
  O   O41       1.0  0.28940  0.69461  0.11584  1.0000
  C   C90       1.0  0.48643  0.52148  0.34278  1.0000
  C   C91       1.0  0.46966  0.98537  0.34342  1.0000
  C   C92       1.0  0.48795  0.96754  0.34267  1.0000
  H   H37       1.0  0.44356  0.97176  0.34363  1.0000
  C   C93       1.0  0.25917  0.63089  0.34263  1.0000
  H   H38       1.0  0.28536  0.64408  0.34194  1.0000
  C   C94       1.0  0.41460  0.64955  0.34510  1.0000
  C   C95       1.0  0.37867  0.63094  0.34224  1.0000
  C   C96       1.0  0.36040  0.59500  0.34072  1.0000
  C   C97       1.0  0.37882  0.57736  0.34220  1.0000
  C   C98       1.0  0.41505  0.59522  0.34635  1.0000
  C   C99       1.0  0.43255  0.63147  0.34692  1.0000
  H   H39       1.0  0.36563  0.55127  0.34229  1.0000
  H   H40       1.0  0.45863  0.64495  0.34791  1.0000
  H   H41       1.0  0.36546  0.64392  0.34146  1.0000
  C   C100      1.0  0.36009  0.76765  0.34537  1.0000
  C   C101      1.0  0.37874  0.75038  0.34241  1.0000
  C   C102      1.0  0.41470  0.76809  0.34073  1.0000
  C   C103      1.0  0.43230  0.80414  0.34207  1.0000
  C   C104      1.0  0.41440  0.82246  0.34639  1.0000
  C   C105      1.0  0.37813  0.80366  0.34719  1.0000
  H   H42       1.0  0.45840  0.81706  0.34192  1.0000
  H   H43       1.0  0.36461  0.81622  0.34833  1.0000
  H   H44       1.0  0.36578  0.72420  0.34168  1.0000
  C   C106      1.0  0.43334  0.57697  0.34922  1.0000
  N   N20       1.0  0.47521  0.56397  0.40381  1.0000
  C   C107      1.0  0.45973  0.58308  0.41127  1.0000
  C   C108      1.0  0.46897  0.60579  0.48272  1.0000
  O   O42       1.0  0.49910  0.62231  0.50339  1.0000
  O   O43       1.0  0.44897  0.60146  0.54485  1.0000
  H   H45       1.0  0.42659  0.58766  0.54292  1.0000
  C   C109      1.0  0.43261  0.85899  0.34920  1.0000
  N   N21       1.0  0.44555  0.91383  0.40382  1.0000
  C   C110      1.0  0.42649  0.87923  0.41133  1.0000
  C   C111      1.0  0.40383  0.86574  0.48295  1.0000
  O   O44       1.0  0.38697  0.87907  0.50265  1.0000
  O   O45       1.0  0.40841  0.85025  0.54506  1.0000
  H   H46       1.0  0.42240  0.84189  0.54315  1.0000
  N   N22       1.0  0.30974  0.57992  0.41865  1.0000
  C   C112      1.0  0.27915  0.57857  0.42787  1.0000
  C   C113      1.0  0.26222  0.57920  0.34798  1.0000
  C   C114      1.0  0.26887  0.58233  0.51341  1.0000
  O   O46       1.0  0.29046  0.59879  0.57030  1.0000
  N   N23       1.0  0.42960  0.73238  0.41814  1.0000
  C   C115      1.0  0.43089  0.70311  0.42723  1.0000
  C   C116      1.0  0.43031  0.68566  0.34712  1.0000
  C   C117      1.0  0.42689  0.68900  0.51279  1.0000
  O   O47       1.0  0.40974  0.69357  0.56873  1.0000
  O   O48       1.0  0.44656  0.68000  0.54341  1.0000
  H   H47       1.0  0.46264  0.67888  0.51222  1.0000
  N   N24       1.0  0.27713  0.69976  0.41848  1.0000
  C   C118      1.0  0.30639  0.73032  0.42771  1.0000
  C   C119      1.0  0.32397  0.74726  0.34782  1.0000
  C   C120      1.0  0.32049  0.74049  0.51323  1.0000
  O   O49       1.0  0.31539  0.71885  0.56992  1.0000
  O   O50       1.0  0.32926  0.76910  0.54385  1.0000
  H   H48       1.0  0.33064  0.78636  0.51240  1.0000
  N   N25       1.0  0.63333  0.08378  0.28681  1.0000
  C   C121      1.0  0.59871  0.06831  0.27940  1.0000
  C   C122      1.0  0.57846  0.04176  0.34101  1.0000
  C   C123      1.0  0.58520  0.07752  0.20793  1.0000
  O   O51       1.0  0.59848  0.10774  0.18875  1.0000
  O   O52       1.0  0.57013  0.05761  0.14516  1.0000
  H   H49       1.0  0.56191  0.03529  0.14663  1.0000
  N   N26       1.0  0.92583  0.05229  0.28642  1.0000
  C   C124      1.0  0.94128  0.03313  0.27906  1.0000
  C   C125      1.0  0.96769  0.03928  0.34104  1.0000
  C   C126      1.0  0.93217  0.01051  0.20746  1.0000
  O   O53       1.0  0.90205  0.99394  0.18673  1.0000
  O   O54       1.0  0.95217  0.01524  0.14499  1.0000
  H   H50       1.0  0.97453  0.02917  0.14687  1.0000
  N   N27       1.0  0.95722  0.37618  0.28625  1.0000
  C   C127      1.0  0.97632  0.41078  0.27883  1.0000
  C   C128      1.0  0.97017  0.43101  0.34090  1.0000
  C   C129      1.0  0.99890  0.42432  0.20712  1.0000
  O   O55       1.0  0.99409  0.43957  0.14474  1.0000
  H   H51       1.0  0.98012  0.44795  0.14675  1.0000
  C   C130      1.0  0.82422  0.07901  0.33918  1.0000
  N   N28       1.0  0.77746  0.07977  0.26850  1.0000
  C   C131      1.0  0.80659  0.07822  0.25922  1.0000
  C   C132      1.0  0.82039  0.08141  0.17355  1.0000
  O   O56       1.0  0.81493  0.09751  0.11625  1.0000
  O   O57       1.0  0.82833  0.06085  0.14365  1.0000
  H   H52       1.0  0.82991  0.04528  0.17602  1.0000
  C   C133      1.0  0.93075  0.24795  0.33879  1.0000
  N   N29       1.0  0.93004  0.20053  0.26778  1.0000
  C   C134      1.0  0.93172  0.23126  0.25877  1.0000
  C   C135      1.0  0.92868  0.24199  0.17317  1.0000
  O   O58       1.0  0.91276  0.22070  0.11518  1.0000
  O   O59       1.0  0.94925  0.27062  0.14394  1.0000
  H   H53       1.0  0.96476  0.28768  0.17667  1.0000
  C   C136      1.0  0.76166  0.18532  0.33904  1.0000
  N   N30       1.0  0.80918  0.23201  0.26843  1.0000
  C   C137      1.0  0.77844  0.20297  0.25913  1.0000
  C   C138      1.0  0.76794  0.18919  0.17344  1.0000
  O   O60       1.0  0.78939  0.19462  0.11584  1.0000
  O   O61       1.0  0.73933  0.18096  0.14373  1.0000
  H   H54       1.0  0.72215  0.17932  0.17612  1.0000
  C   C139      1.0  0.54192  0.02299  0.34270  1.0000
  C   C140      1.0  0.52256  0.03976  0.34349  1.0000
  C   C141      1.0  0.98643  0.02148  0.34278  1.0000
  C   C142      1.0  0.96966  0.48537  0.34342  1.0000
  C   C143      1.0  0.98795  0.46754  0.34267  1.0000
  C   C144      1.0  0.52407  0.48688  0.34335  1.0000
  H   H55       1.0  0.94356  0.47177  0.34363  1.0000
  H   H56       1.0  0.53769  0.47440  0.34349  1.0000
  H   H57       1.0  0.53504  0.06585  0.34380  1.0000
  C   C145      1.0  0.74187  0.09498  0.34546  1.0000
  C   C146      1.0  0.75917  0.13089  0.34263  1.0000
  C   C147      1.0  0.74149  0.14916  0.34096  1.0000
  C   C148      1.0  0.70542  0.13074  0.34233  1.0000
  C   C149      1.0  0.68706  0.09452  0.34660  1.0000
  C   C150      1.0  0.70584  0.07704  0.34725  1.0000
  H   H58       1.0  0.69251  0.14392  0.34226  1.0000
  H   H59       1.0  0.69327  0.05097  0.34828  1.0000
  H   H60       1.0  0.78536  0.14408  0.34194  1.0000
  C   C151      1.0  0.91460  0.14955  0.34510  1.0000
  C   C152      1.0  0.87867  0.13094  0.34224  1.0000
  C   C153      1.0  0.86040  0.09499  0.34072  1.0000
  C   C154      1.0  0.87882  0.07736  0.34220  1.0000
  C   C155      1.0  0.91505  0.09522  0.34635  1.0000
  C   C156      1.0  0.93255  0.13147  0.34692  1.0000
  H   H61       1.0  0.86563  0.05127  0.34229  1.0000
  H   H62       1.0  0.95863  0.14495  0.34791  1.0000
  H   H63       1.0  0.86546  0.14392  0.34146  1.0000
  C   C157      1.0  0.86009  0.26765  0.34537  1.0000
  C   C158      1.0  0.87874  0.25038  0.34241  1.0000
  C   C159      1.0  0.91470  0.26809  0.34073  1.0000
  C   C160      1.0  0.93230  0.30414  0.34207  1.0000
  C   C161      1.0  0.91439  0.32245  0.34639  1.0000
  C   C162      1.0  0.87813  0.30366  0.34719  1.0000
  H   H64       1.0  0.95841  0.31706  0.34192  1.0000
  H   H65       1.0  0.86461  0.31622  0.34832  1.0000
  H   H66       1.0  0.86578  0.22420  0.34168  1.0000
  C   C163      1.0  0.65051  0.07621  0.34945  1.0000
  N   N31       1.0  0.59564  0.03417  0.40362  1.0000
  C   C164      1.0  0.63025  0.04972  0.41122  1.0000
  C   C165      1.0  0.64372  0.04035  0.48244  1.0000
  O   O62       1.0  0.63016  0.01020  0.50266  1.0000
  O   O63       1.0  0.65936  0.06023  0.54478  1.0000
  H   H67       1.0  0.66791  0.08260  0.54316  1.0000
  C   C166      1.0  0.93334  0.07697  0.34922  1.0000
  N   N32       1.0  0.97521  0.06396  0.40381  1.0000
  C   C167      1.0  0.95973  0.08308  0.41127  1.0000
  C   C168      1.0  0.96897  0.10579  0.48272  1.0000
  O   O64       1.0  0.99910  0.12231  0.50339  1.0000
  O   O65       1.0  0.94897  0.10146  0.54485  1.0000
  H   H68       1.0  0.92659  0.08766  0.54292  1.0000
  C   C169      1.0  0.93261  0.35899  0.34920  1.0000
  N   N33       1.0  0.94555  0.41383  0.40382  1.0000
  C   C170      1.0  0.92649  0.37923  0.41133  1.0000
  C   C171      1.0  0.90383  0.36574  0.48295  1.0000
  O   O66       1.0  0.88697  0.37907  0.50265  1.0000
  O   O67       1.0  0.90841  0.35025  0.54506  1.0000
  H   H69       1.0  0.92240  0.34189  0.54315  1.0000
  N   N34       1.0  0.80974  0.07992  0.41865  1.0000
  C   C172      1.0  0.77915  0.07857  0.42787  1.0000
  C   C173      1.0  0.76222  0.07920  0.34798  1.0000
  C   C174      1.0  0.76887  0.08234  0.51341  1.0000
  O   O68       1.0  0.79047  0.09879  0.57030  1.0000
  O   O69       1.0  0.74022  0.06243  0.54377  1.0000
  H   H70       1.0  0.72300  0.04660  0.51214  1.0000
  N   N35       1.0  0.92960  0.23238  0.41814  1.0000
  C   C175      1.0  0.93089  0.20311  0.42723  1.0000
  C   C176      1.0  0.93031  0.18566  0.34712  1.0000
  C   C177      1.0  0.92689  0.18900  0.51279  1.0000
  O   O70       1.0  0.90974  0.19357  0.56873  1.0000
  O   O71       1.0  0.94656  0.18000  0.54341  1.0000
  H   H71       1.0  0.96264  0.17888  0.51222  1.0000
  N   N36       1.0  0.77713  0.19975  0.41848  1.0000
  C   C178      1.0  0.80639  0.23031  0.42771  1.0000
  C   C179      1.0  0.82397  0.24726  0.34782  1.0000
  C   C180      1.0  0.82049  0.24049  0.51323  1.0000
  O   O72       1.0  0.81538  0.21885  0.56992  1.0000
  O   O73       1.0  0.82926  0.26910  0.54385  1.0000
  H   H72       1.0  0.83064  0.28636  0.51240  1.0000
  N   N37       1.0  0.63333  0.58378  0.28681  1.0000
  C   C181      1.0  0.59871  0.56831  0.27940  1.0000
  C   C182      1.0  0.57847  0.54176  0.34101  1.0000
  C   C183      1.0  0.58520  0.57752  0.20793  1.0000
  O   O74       1.0  0.59848  0.60774  0.18875  1.0000
  O   O75       1.0  0.57013  0.55761  0.14516  1.0000
  H   H73       1.0  0.56191  0.53529  0.14663  1.0000
  N   N38       1.0  0.92583  0.55229  0.28642  1.0000
  C   C184      1.0  0.94128  0.53313  0.27906  1.0000
  C   C185      1.0  0.96769  0.53928  0.34104  1.0000
  C   C186      1.0  0.93217  0.51051  0.20746  1.0000
  O   O76       1.0  0.90205  0.49394  0.18673  1.0000
  O   O77       1.0  0.95217  0.51524  0.14499  1.0000
  H   H74       1.0  0.97453  0.52917  0.14687  1.0000
  N   N39       1.0  0.95722  0.87618  0.28625  1.0000
  C   C187      1.0  0.97632  0.91078  0.27883  1.0000
  C   C188      1.0  0.97017  0.93100  0.34090  1.0000
  C   C189      1.0  0.99890  0.92433  0.20712  1.0000
  O   O78       1.0  0.99409  0.93957  0.14474  1.0000
  H   H75       1.0  0.98012  0.94795  0.14675  1.0000
  C   C190      1.0  0.82422  0.57901  0.33918  1.0000
  N   N40       1.0  0.77747  0.57977  0.26850  1.0000
  C   C191      1.0  0.80659  0.57822  0.25922  1.0000
  C   C192      1.0  0.82039  0.58141  0.17355  1.0000
  O   O79       1.0  0.81493  0.59751  0.11625  1.0000
  O   O80       1.0  0.82833  0.56085  0.14365  1.0000
  H   H76       1.0  0.82991  0.54529  0.17602  1.0000
  C   C193      1.0  0.93075  0.74795  0.33879  1.0000
  N   N41       1.0  0.93004  0.70053  0.26778  1.0000
  C   C194      1.0  0.93172  0.73126  0.25877  1.0000
  C   C195      1.0  0.92868  0.74199  0.17317  1.0000
  O   O81       1.0  0.91276  0.72070  0.11518  1.0000
  O   O82       1.0  0.94925  0.77062  0.14394  1.0000
  H   H77       1.0  0.96476  0.78768  0.17667  1.0000
  C   C196      1.0  0.76166  0.68533  0.33904  1.0000
  N   N42       1.0  0.80918  0.73201  0.26843  1.0000
  C   C197      1.0  0.77844  0.70297  0.25913  1.0000
  C   C198      1.0  0.76794  0.68919  0.17344  1.0000
  O   O83       1.0  0.78939  0.69461  0.11584  1.0000
  O   O84       1.0  0.73933  0.68096  0.14373  1.0000
  H   H78       1.0  0.72215  0.67932  0.17612  1.0000
  C   C199      1.0  0.54192  0.52299  0.34270  1.0000
  C   C200      1.0  0.52256  0.53976  0.34349  1.0000
  C   C201      1.0  0.98643  0.52148  0.34278  1.0000
  C   C202      1.0  0.96966  0.98537  0.34342  1.0000
  C   C203      1.0  0.98795  0.96754  0.34267  1.0000
  C   C204      1.0  0.52408  0.98688  0.34335  1.0000
  H   H79       1.0  0.94356  0.97176  0.34363  1.0000
  H   H80       1.0  0.53770  0.97440  0.34349  1.0000
  H   H81       1.0  0.53504  0.56585  0.34380  1.0000
  C   C205      1.0  0.74187  0.59498  0.34546  1.0000
  C   C206      1.0  0.75917  0.63089  0.34263  1.0000
  C   C207      1.0  0.74149  0.64916  0.34096  1.0000
  C   C208      1.0  0.70542  0.63074  0.34233  1.0000
  C   C209      1.0  0.68707  0.59452  0.34660  1.0000
  C   C210      1.0  0.70584  0.57704  0.34725  1.0000
  H   H82       1.0  0.69251  0.64392  0.34226  1.0000
  H   H83       1.0  0.69327  0.55097  0.34828  1.0000
  H   H84       1.0  0.78536  0.64408  0.34194  1.0000
  C   C211      1.0  0.91460  0.64955  0.34510  1.0000
  C   C212      1.0  0.87867  0.63094  0.34224  1.0000
  C   C213      1.0  0.86040  0.59500  0.34072  1.0000
  C   C214      1.0  0.87882  0.57736  0.34220  1.0000
  C   C215      1.0  0.91505  0.59522  0.34635  1.0000
  C   C216      1.0  0.93255  0.63147  0.34692  1.0000
  H   H85       1.0  0.86563  0.55127  0.34229  1.0000
  H   H86       1.0  0.95863  0.64495  0.34791  1.0000
  H   H87       1.0  0.86546  0.64392  0.34146  1.0000
  C   C217      1.0  0.86009  0.76765  0.34537  1.0000
  C   C218      1.0  0.87874  0.75038  0.34241  1.0000
  C   C219      1.0  0.91470  0.76809  0.34073  1.0000
  C   C220      1.0  0.93230  0.80414  0.34207  1.0000
  C   C221      1.0  0.91440  0.82246  0.34639  1.0000
  C   C222      1.0  0.87813  0.80366  0.34719  1.0000
  H   H88       1.0  0.95840  0.81706  0.34192  1.0000
  H   H89       1.0  0.86461  0.81622  0.34833  1.0000
  H   H90       1.0  0.86578  0.72420  0.34168  1.0000
  C   C223      1.0  0.65051  0.57621  0.34945  1.0000
  N   N43       1.0  0.59564  0.53417  0.40362  1.0000
  C   C224      1.0  0.63025  0.54972  0.41122  1.0000
  C   C225      1.0  0.64372  0.54035  0.48244  1.0000
  O   O85       1.0  0.63016  0.51020  0.50266  1.0000
  O   O86       1.0  0.65937  0.56023  0.54478  1.0000
  H   H91       1.0  0.66791  0.58260  0.54316  1.0000
  C   C226      1.0  0.93334  0.57697  0.34922  1.0000
  N   N44       1.0  0.97521  0.56397  0.40381  1.0000
  C   C227      1.0  0.95973  0.58308  0.41127  1.0000
  C   C228      1.0  0.96897  0.60579  0.48272  1.0000
  O   O87       1.0  0.99910  0.62231  0.50339  1.0000
  O   O88       1.0  0.94897  0.60146  0.54485  1.0000
  H   H92       1.0  0.92659  0.58766  0.54292  1.0000
  C   C229      1.0  0.93261  0.85899  0.34920  1.0000
  N   N45       1.0  0.94555  0.91383  0.40382  1.0000
  C   C230      1.0  0.92649  0.87923  0.41133  1.0000
  C   C231      1.0  0.90383  0.86574  0.48295  1.0000
  O   O89       1.0  0.88697  0.87907  0.50265  1.0000
  O   O90       1.0  0.90841  0.85025  0.54506  1.0000
  H   H93       1.0  0.92240  0.84189  0.54315  1.0000
  N   N46       1.0  0.80974  0.57992  0.41865  1.0000
  C   C232      1.0  0.77915  0.57857  0.42787  1.0000
  C   C233      1.0  0.76222  0.57920  0.34798  1.0000
  C   C234      1.0  0.76887  0.58233  0.51341  1.0000
  O   O91       1.0  0.79047  0.59879  0.57030  1.0000
  O   O92       1.0  0.74022  0.56243  0.54377  1.0000
  H   H94       1.0  0.72300  0.54660  0.51214  1.0000
  N   N47       1.0  0.92960  0.73238  0.41814  1.0000
  C   C235      1.0  0.93089  0.70311  0.42723  1.0000
  C   C236      1.0  0.93032  0.68566  0.34712  1.0000
  C   C237      1.0  0.92689  0.68900  0.51279  1.0000
  O   O93       1.0  0.90974  0.69357  0.56873  1.0000
  O   O94       1.0  0.94657  0.68000  0.54341  1.0000
  H   H95       1.0  0.96264  0.67888  0.51222  1.0000
  N   N48       1.0  0.77713  0.69976  0.41848  1.0000
  C   C238      1.0  0.80639  0.73032  0.42771  1.0000
  C   C239      1.0  0.82397  0.74726  0.34782  1.0000
  C   C240      1.0  0.82049  0.74049  0.51323  1.0000
  O   O95       1.0  0.81539  0.71885  0.56992  1.0000
  O   O96       1.0  0.82926  0.76910  0.54385  1.0000
  H   H96       1.0  0.83064  0.78636  0.51240  1.0000
