data_image0
_chemical_formula_structural       C3NC3NC5NC5NC36H26N4C3NC3NC5NC5NC36H26N4C3NC3NC5NC5NC36H26N4C3HNO2CHC3HNO2CHC3HNO2CHC3HNO2CHC3HNO2CHC3HNO2CHC16H16C16H16C16H16C3HNO2CHC3HNO2CHC3HNO2CHC3HNO2CHC3HNO2CHC3HNO2CH
_chemical_formula_sum              "C252 N36 H150 O24"
_cell_length_a       67.6153
_cell_length_b       67.6154
_cell_length_c       14.8756
_cell_angle_alpha    89.8356
_cell_angle_beta     90.1644
_cell_angle_gamma    120

_space_group_name_H-M_alt    "P 1"
_space_group_IT_number       1

loop_
  _space_group_symop_operation_xyz
  'x, y, z'

loop_
  _atom_site_type_symbol
  _atom_site_label
  _atom_site_symmetry_multiplicity
  _atom_site_fract_x
  _atom_site_fract_y
  _atom_site_fract_z
  _atom_site_occupancy
  C   C1        1.0  0.04806  0.50718  0.32137  1.0000
  C   C2        1.0  0.02445  0.49528  0.32269  1.0000
  C   C3        1.0  0.01685  0.51107  0.32289  1.0000
  N   N1        1.0  0.03610  0.53187  0.32203  1.0000
  C   C4        1.0  0.05546  0.53053  0.32123  1.0000
  C   C5        1.0  0.07871  0.54833  0.32041  1.0000
  C   C6        1.0  0.08604  0.57205  0.32121  1.0000
  N   N2        1.0  0.07305  0.58210  0.32203  1.0000
  C   C7        1.0  0.08586  0.60516  0.32303  1.0000
  C   C8        1.0  0.10858  0.61021  0.32279  1.0000
  C   C9        1.0  0.10869  0.58987  0.32171  1.0000
  C   C10       1.0  0.07833  0.62139  0.32388  1.0000
  C   C11       1.0  0.05502  0.61574  0.32293  1.0000
  N   N3        1.0  0.03577  0.59494  0.32203  1.0000
  C   C12       1.0  0.01641  0.59629  0.32122  1.0000
  C   C13       1.0  0.02381  0.61964  0.32140  1.0000
  C   C14       1.0  0.04742  0.63153  0.32276  1.0000
  C   C15       1.0  0.99315  0.57848  0.32037  1.0000
  C   C16       1.0  0.98583  0.55477  0.32115  1.0000
  N   N4        1.0  0.99882  0.54471  0.32190  1.0000
  C   C17       1.0  0.98601  0.52166  0.32299  1.0000
  C   C18       1.0  0.96328  0.51661  0.32291  1.0000
  C   C19       1.0  0.96318  0.53696  0.32180  1.0000
  C   C20       1.0  0.99354  0.50542  0.32383  1.0000
  C   C21       1.0  0.97628  0.48185  0.32586  1.0000
  C   C22       1.0  0.93786  0.43639  0.32910  1.0000
  C   C23       1.0  0.94829  0.44726  0.24698  1.0000
  C   C24       1.0  0.96709  0.46966  0.24521  1.0000
  C   C25       1.0  0.91785  0.41412  0.33033  1.0000
  C   C26       1.0  0.91578  0.39642  0.27338  1.0000
  C   C27       1.0  0.89593  0.37470  0.27336  1.0000
  C   C28       1.0  0.87726  0.36991  0.33001  1.0000
  C   C29       1.0  0.97576  0.58462  0.31887  1.0000
  C   C30       1.0  0.93758  0.59204  0.31718  1.0000
  C   C31       1.0  0.94657  0.58867  0.23635  1.0000
  C   C32       1.0  0.96532  0.58501  0.23704  1.0000
  C   C33       1.0  0.91780  0.59469  0.31678  1.0000
  C   C34       1.0  0.87780  0.59932  0.31825  1.0000
  C   C35       1.0  0.87909  0.58321  0.26218  1.0000
  C   C36       1.0  0.89868  0.58090  0.26154  1.0000
  C   C37       1.0  0.09557  0.64496  0.32592  1.0000
  C   C38       1.0  0.10444  0.65733  0.24532  1.0000
  C   C39       1.0  0.12309  0.67982  0.24706  1.0000
  C   C40       1.0  0.13366  0.69060  0.32911  1.0000
  C   C41       1.0  0.15345  0.71301  0.33029  1.0000
  C   C42       1.0  0.19356  0.75757  0.33012  1.0000
  C   C43       1.0  0.17466  0.75259  0.27420  1.0000
  C   C44       1.0  0.15505  0.73071  0.27414  1.0000
  C   C45       1.0  0.09612  0.54222  0.31891  1.0000
  C   C46       1.0  0.10641  0.54180  0.23701  1.0000
  C   C47       1.0  0.13460  0.53527  0.31715  1.0000
  C   C48       1.0  0.12531  0.53836  0.23629  1.0000
  C   C49       1.0  0.15458  0.53296  0.31671  1.0000
  C   C50       1.0  0.17350  0.54686  0.26088  1.0000
  C   C51       1.0  0.19330  0.54491  0.26155  1.0000
  C   C52       1.0  0.19502  0.52908  0.31827  1.0000
  H   H1        1.0  0.20664  0.55539  0.22060  1.0000
  H   H2        1.0  0.17329  0.55899  0.22025  1.0000
  H   H3        1.0  0.13233  0.53827  0.17557  1.0000
  H   H4        1.0  0.10058  0.54459  0.17742  1.0000
  H   H5        1.0  0.05799  0.49972  0.32097  1.0000
  H   H6        1.0  0.01463  0.47787  0.32314  1.0000
  H   H7        1.0  0.03603  0.54604  0.32209  1.0000
  H   H8        1.0  0.03584  0.58077  0.32205  1.0000
  H   H9        1.0  0.12313  0.58859  0.32156  1.0000
  H   H10       1.0  0.12293  0.62599  0.32318  1.0000
  H   H11       1.0  0.09780  0.64980  0.18460  1.0000
  H   H12       1.0  0.12953  0.68789  0.18703  1.0000
  H   H13       1.0  0.05723  0.64894  0.32324  1.0000
  H   H14       1.0  0.01387  0.62710  0.32095  1.0000
  H   H15       1.0  0.94893  0.50083  0.32346  1.0000
  H   H16       1.0  0.94874  0.53823  0.32182  1.0000
  H   H17       1.0  0.97097  0.58209  0.17749  1.0000
  H   H18       1.0  0.93945  0.58878  0.17569  1.0000
  H   H19       1.0  0.89858  0.56859  0.22141  1.0000
  H   H20       1.0  0.86559  0.57281  0.22165  1.0000
  H   H21       1.0  0.97357  0.47728  0.18446  1.0000
  H   H22       1.0  0.94159  0.43935  0.18694  1.0000
  H   H23       1.0  0.89535  0.36243  0.23178  1.0000
  H   H24       1.0  0.92895  0.39905  0.23201  1.0000
  H   H25       1.0  0.14168  0.72795  0.23340  1.0000
  H   H26       1.0  0.17490  0.76487  0.23328  1.0000
  N   N5        1.0  0.85787  0.34982  0.33429  1.0000
  N   N6        1.0  0.21434  0.52826  0.31455  1.0000
  N   N7        1.0  0.21274  0.77783  0.33444  1.0000
  N   N8        1.0  0.85866  0.60050  0.31446  1.0000
  C   C53       1.0  0.59368  0.63495  0.32385  1.0000
  C   C54       1.0  0.60559  0.62326  0.32514  1.0000
  C   C55       1.0  0.58983  0.59986  0.32517  1.0000
  N   N9        1.0  0.56902  0.59829  0.32426  1.0000
  C   C56       1.0  0.57033  0.61899  0.32354  1.0000
  C   C57       1.0  0.55251  0.62441  0.32263  1.0000
  C   C58       1.0  0.52880  0.60799  0.32334  1.0000
  N   N10       1.0  0.51877  0.58495  0.32423  1.0000
  C   C59       1.0  0.49571  0.57467  0.32513  1.0000
  C   C60       1.0  0.49063  0.59232  0.32474  1.0000
  C   C61       1.0  0.51096  0.61279  0.32369  1.0000
  C   C62       1.0  0.47951  0.55090  0.32604  1.0000
  C   C63       1.0  0.48519  0.53326  0.32517  1.0000
  N   N11       1.0  0.50600  0.53484  0.32420  1.0000
  C   C64       1.0  0.50468  0.51414  0.32349  1.0000
  C   C65       1.0  0.48134  0.49818  0.32382  1.0000
  C   C66       1.0  0.46942  0.50987  0.32520  1.0000
  C   C67       1.0  0.52250  0.50873  0.32256  1.0000
  C   C68       1.0  0.54621  0.52514  0.32327  1.0000
  N   N12       1.0  0.55624  0.54818  0.32411  1.0000
  C   C69       1.0  0.57930  0.55845  0.32508  1.0000
  C   C70       1.0  0.58437  0.54080  0.32484  1.0000
  C   C71       1.0  0.56404  0.52033  0.32377  1.0000
  C   C72       1.0  0.59550  0.58222  0.32599  1.0000
  C   C73       1.0  0.61908  0.58856  0.32798  1.0000
  C   C74       1.0  0.66457  0.59567  0.33105  1.0000
  C   C75       1.0  0.65369  0.59537  0.24899  1.0000
  C   C76       1.0  0.63130  0.59177  0.24731  1.0000
  C   C77       1.0  0.68684  0.59794  0.33217  1.0000
  C   C78       1.0  0.70454  0.61369  0.27530  1.0000
  C   C79       1.0  0.72625  0.61555  0.27512  1.0000
  C   C80       1.0  0.73105  0.60157  0.33152  1.0000
  C   C81       1.0  0.51640  0.48521  0.32110  1.0000
  C   C82       1.0  0.50898  0.43961  0.31944  1.0000
  C   C83       1.0  0.51232  0.45205  0.23860  1.0000
  C   C84       1.0  0.51597  0.47447  0.23927  1.0000
  C   C85       1.0  0.50632  0.41718  0.31905  1.0000
  C   C86       1.0  0.50166  0.37254  0.32049  1.0000
  C   C87       1.0  0.51776  0.39000  0.26436  1.0000
  C   C88       1.0  0.52010  0.41190  0.26378  1.0000
  C   C89       1.0  0.45593  0.54454  0.32804  1.0000
  C   C90       1.0  0.44353  0.54103  0.24742  1.0000
  C   C91       1.0  0.42104  0.53718  0.24909  1.0000
  C   C92       1.0  0.41025  0.53690  0.33107  1.0000
  C   C93       1.0  0.38783  0.53425  0.33216  1.0000
  C   C94       1.0  0.34327  0.52981  0.33158  1.0000
  C   C95       1.0  0.34825  0.51592  0.27594  1.0000
  C   C96       1.0  0.37013  0.51817  0.27610  1.0000
  C   C97       1.0  0.55859  0.64793  0.32114  1.0000
  C   C98       1.0  0.55901  0.65875  0.23926  1.0000
  C   C99       1.0  0.56554  0.69337  0.31942  1.0000
  C   C100      1.0  0.56245  0.68109  0.23855  1.0000
  C   C101      1.0  0.56785  0.71567  0.31899  1.0000
  C   C102      1.0  0.55397  0.72077  0.26310  1.0000
  C   C103      1.0  0.55592  0.74252  0.26374  1.0000
  C   C104      1.0  0.57174  0.76000  0.32049  1.0000
  H   H27       1.0  0.54545  0.74543  0.22273  1.0000
  H   H28       1.0  0.54185  0.70849  0.22243  1.0000
  H   H29       1.0  0.56254  0.68829  0.17784  1.0000
  H   H30       1.0  0.55623  0.65021  0.17967  1.0000
  H   H31       1.0  0.60111  0.65235  0.32345  1.0000
  H   H32       1.0  0.62300  0.63087  0.32560  1.0000
  H   H33       1.0  0.55486  0.58404  0.32412  1.0000
  H   H34       1.0  0.52016  0.54909  0.32402  1.0000
  H   H35       1.0  0.51221  0.62849  0.32346  1.0000
  H   H36       1.0  0.47484  0.59086  0.32503  1.0000
  H   H37       1.0  0.45106  0.54197  0.18673  1.0000
  H   H38       1.0  0.41295  0.53553  0.18903  1.0000
  H   H39       1.0  0.45201  0.50225  0.32576  1.0000
  H   H40       1.0  0.47390  0.48078  0.32350  1.0000
  H   H41       1.0  0.60016  0.54225  0.32528  1.0000
  H   H42       1.0  0.56279  0.50463  0.32367  1.0000
  H   H43       1.0  0.51887  0.48311  0.17970  1.0000
  H   H44       1.0  0.51220  0.44490  0.17793  1.0000
  H   H45       1.0  0.53239  0.42416  0.22355  1.0000
  H   H46       1.0  0.52815  0.38694  0.22379  1.0000
  H   H47       1.0  0.62367  0.59075  0.18659  1.0000
  H   H48       1.0  0.66163  0.59675  0.18891  1.0000
  H   H49       1.0  0.73854  0.62734  0.23365  1.0000
  H   H50       1.0  0.70190  0.62432  0.23416  1.0000
  H   H51       1.0  0.37290  0.50761  0.23549  1.0000
  H   H52       1.0  0.33598  0.50391  0.23508  1.0000
  N   N13       1.0  0.75113  0.60224  0.33549  1.0000
  N   N14       1.0  0.57257  0.78016  0.31673  1.0000
  N   N15       1.0  0.32302  0.52875  0.33561  1.0000
  N   N16       1.0  0.50046  0.35222  0.31668  1.0000
  C   C105      1.0  0.46589  0.05284  0.32527  1.0000
  C   C106      1.0  0.47761  0.07645  0.32668  1.0000
  C   C107      1.0  0.50100  0.08404  0.32697  1.0000
  N   N17       1.0  0.50254  0.06479  0.32611  1.0000
  C   C108      1.0  0.48182  0.04543  0.32522  1.0000
  C   C109      1.0  0.47637  0.02218  0.32449  1.0000
  C   C110      1.0  0.49277  0.01486  0.32571  1.0000
  N   N18       1.0  0.51581  0.02785  0.32645  1.0000
  C   C111      1.0  0.52606  0.01505  0.32793  1.0000
  C   C112      1.0  0.50839  0.99232  0.32828  1.0000
  C   C113      1.0  0.48794  0.99220  0.32685  1.0000
  C   C114      1.0  0.54982  0.02258  0.32864  1.0000
  C   C115      1.0  0.56749  0.04589  0.32764  1.0000
  N   N19       1.0  0.56596  0.06515  0.32711  1.0000
  C   C116      1.0  0.58667  0.08451  0.32570  1.0000
  C   C117      1.0  0.60260  0.07709  0.32531  1.0000
  C   C118      1.0  0.59087  0.05348  0.32675  1.0000
  C   C119      1.0  0.59214  0.10777  0.32464  1.0000
  C   C120      1.0  0.57573  0.11508  0.32545  1.0000
  N   N20       1.0  0.55269  0.10209  0.32617  1.0000
  C   C121      1.0  0.54244  0.11489  0.32721  1.0000
  C   C122      1.0  0.56010  0.13761  0.32711  1.0000
  C   C123      1.0  0.58056  0.13773  0.32607  1.0000
  C   C124      1.0  0.51867  0.10735  0.32799  1.0000
  C   C125      1.0  0.51236  0.12459  0.33000  1.0000
  C   C126      1.0  0.50521  0.16293  0.33321  1.0000
  C   C127      1.0  0.50555  0.15250  0.25110  1.0000
  C   C128      1.0  0.50916  0.13371  0.24934  1.0000
  C   C129      1.0  0.50294  0.18293  0.33438  1.0000
  C   C130      1.0  0.48718  0.18494  0.27755  1.0000
  C   C131      1.0  0.48533  0.20480  0.27738  1.0000
  C   C132      1.0  0.49933  0.22351  0.33372  1.0000
  C   C133      1.0  0.61567  0.12518  0.32281  1.0000
  C   C134      1.0  0.66126  0.16340  0.32069  1.0000
  C   C135      1.0  0.64868  0.15452  0.24006  1.0000
  C   C136      1.0  0.62627  0.13574  0.24095  1.0000
  C   C137      1.0  0.68371  0.18317  0.32013  1.0000
  C   C138      1.0  0.72841  0.22314  0.32125  1.0000
  C   C139      1.0  0.71085  0.22195  0.26601  1.0000
  C   C140      1.0  0.68893  0.20239  0.26550  1.0000
  C   C141      1.0  0.55614  0.00533  0.33001  1.0000
  C   C142      1.0  0.55843  0.99580  0.24905  1.0000
  C   C143      1.0  0.56223  0.97714  0.25049  1.0000
  C   C144      1.0  0.56365  0.96724  0.33265  1.0000
  C   C145      1.0  0.56634  0.94751  0.33376  1.0000
  C   C146      1.0  0.57096  0.90751  0.33350  1.0000
  C   C147      1.0  0.58448  0.92627  0.27643  1.0000
  C   C148      1.0  0.58212  0.94583  0.27635  1.0000
  C   C149      1.0  0.45286  0.00476  0.32273  1.0000
  C   C150      1.0  0.44217  0.99435  0.24079  1.0000
  C   C151      1.0  0.40750  0.96618  0.32062  1.0000
  C   C152      1.0  0.41986  0.97540  0.23990  1.0000
  C   C153      1.0  0.38521  0.94619  0.32006  1.0000
  C   C154      1.0  0.38020  0.92718  0.26488  1.0000
  C   C155      1.0  0.35845  0.90738  0.26548  1.0000
  C   C156      1.0  0.34087  0.90577  0.32134  1.0000
  H   H53       1.0  0.35559  0.89398  0.22499  1.0000
  H   H54       1.0  0.39256  0.92733  0.22485  1.0000
  H   H55       1.0  0.41276  0.96828  0.17917  1.0000
  H   H56       1.0  0.45079  0.00013  0.18133  1.0000
  H   H57       1.0  0.44849  0.04290  0.32481  1.0000
  H   H58       1.0  0.47002  0.08627  0.32711  1.0000
  H   H59       1.0  0.51678  0.06486  0.32620  1.0000
  H   H60       1.0  0.55172  0.06508  0.32784  1.0000
  H   H61       1.0  0.47223  0.97777  0.32709  1.0000
  H   H62       1.0  0.50983  0.97798  0.32931  1.0000
  H   H63       1.0  0.55663  0.00195  0.18843  1.0000
  H   H64       1.0  0.56301  0.97022  0.19042  1.0000
  H   H65       1.0  0.59846  0.04366  0.32668  1.0000
  H   H66       1.0  0.62000  0.08702  0.32420  1.0000
  H   H67       1.0  0.55867  0.15196  0.32763  1.0000
  H   H68       1.0  0.59627  0.15217  0.32611  1.0000
  H   H69       1.0  0.61753  0.13016  0.18155  1.0000
  H   H70       1.0  0.65573  0.16172  0.17938  1.0000
  H   H71       1.0  0.67661  0.20255  0.22593  1.0000
  H   H72       1.0  0.71385  0.23551  0.22593  1.0000
  H   H73       1.0  0.51021  0.12722  0.18860  1.0000
  H   H74       1.0  0.50418  0.15914  0.19105  1.0000
  H   H75       1.0  0.47354  0.20535  0.23590  1.0000
  H   H76       1.0  0.47656  0.17173  0.23640  1.0000
  H   H77       1.0  0.59239  0.95909  0.23463  1.0000
  H   H78       1.0  0.59627  0.92596  0.23454  1.0000
  N   N21       1.0  0.49867  0.24291  0.33769  1.0000
  N   N22       1.0  0.32071  0.88645  0.31753  1.0000
  N   N23       1.0  0.57208  0.88834  0.33760  1.0000
  N   N24       1.0  0.74874  0.24227  0.31735  1.0000
  C   C157      1.0  0.28543  0.52041  0.30457  1.0000
  C   C158      1.0  0.27139  0.52084  0.23417  1.0000
  C   C159      1.0  0.25091  0.52073  0.25530  1.0000
  H   H79       1.0  0.24085  0.52058  0.20341  1.0000
  N   N25       1.0  0.27794  0.52130  0.14334  1.0000
  O   O1        1.0  0.26341  0.50406  0.10081  1.0000
  O   O2        1.0  0.28084  0.53894  0.10332  1.0000
  C   C160      1.0  0.30495  0.51903  0.28623  1.0000
  H   H80       1.0  0.30489  0.51042  0.23217  1.0000
  C   C161      1.0  0.58046  0.85915  0.30669  1.0000
  C   C162      1.0  0.58001  0.84476  0.23631  1.0000
  C   C163      1.0  0.58011  0.82435  0.25746  1.0000
  H   H81       1.0  0.58023  0.81448  0.20557  1.0000
  N   N26       1.0  0.57953  0.85095  0.14547  1.0000
  O   O3        1.0  0.59675  0.85369  0.10287  1.0000
  O   O4        1.0  0.56187  0.83625  0.10554  1.0000
  C   C164      1.0  0.58182  0.88006  0.28830  1.0000
  H   H82       1.0  0.59043  0.88868  0.23424  1.0000
  C   C165      1.0  0.24185  0.81561  0.30453  1.0000
  C   C166      1.0  0.25573  0.83032  0.23454  1.0000
  C   C167      1.0  0.27601  0.85085  0.25627  1.0000
  H   H83       1.0  0.28551  0.86140  0.20476  1.0000
  N   N27       1.0  0.24917  0.82441  0.14351  1.0000
  O   O5        1.0  0.24587  0.83904  0.10457  1.0000
  O   O6        1.0  0.26388  0.82219  0.10031  1.0000
  C   C168      1.0  0.22097  0.79603  0.28583  1.0000
  H   H84       1.0  0.21224  0.79620  0.23233  1.0000
  C   C169      1.0  0.78844  0.60985  0.30416  1.0000
  C   C170      1.0  0.80222  0.60910  0.23379  1.0000
  C   C171      1.0  0.82253  0.60881  0.25496  1.0000
  H   H85       1.0  0.83242  0.60874  0.20307  1.0000
  N   N28       1.0  0.79560  0.60872  0.14295  1.0000
  O   O7        1.0  0.81027  0.62581  0.10007  1.0000
  O   O8        1.0  0.79233  0.59093  0.10334  1.0000
  C   C172      1.0  0.76911  0.61161  0.28576  1.0000
  H   H86       1.0  0.76923  0.62023  0.23139  1.0000
  C   C173      1.0  0.49107  0.27265  0.30638  1.0000
  C   C174      1.0  0.49183  0.28728  0.23601  1.0000
  C   C175      1.0  0.49213  0.30785  0.25717  1.0000
  H   H87       1.0  0.49221  0.31789  0.20530  1.0000
  N   N29       1.0  0.49221  0.28115  0.14516  1.0000
  O   O9        1.0  0.47512  0.27878  0.10228  1.0000
  O   O10       1.0  0.50999  0.29570  0.10554  1.0000
  C   C176      1.0  0.48929  0.25158  0.28796  1.0000
  H   H88       1.0  0.48066  0.24315  0.23362  1.0000
  C   C177      1.0  0.82822  0.31231  0.30409  1.0000
  C   C178      1.0  0.81407  0.29783  0.23410  1.0000
  C   C179      1.0  0.79362  0.27746  0.25582  1.0000
  H   H89       1.0  0.78393  0.26709  0.20430  1.0000
  N   N30       1.0  0.82055  0.30381  0.14306  1.0000
  O   O11       1.0  0.82347  0.28903  0.10373  1.0000
  O   O12       1.0  0.80597  0.30642  0.10023  1.0000
  C   C180      1.0  0.84925  0.33169  0.28535  1.0000
  H   H90       1.0  0.85779  0.33145  0.23158  1.0000
  C   C181      1.0  0.96635  0.47103  0.40821  1.0000
  C   C182      1.0  0.94749  0.44868  0.40965  1.0000
  C   C183      1.0  0.87930  0.38740  0.38745  1.0000
  C   C184      1.0  0.89917  0.40909  0.38753  1.0000
  C   C185      1.0  0.96718  0.58826  0.39976  1.0000
  C   C186      1.0  0.94847  0.59201  0.39875  1.0000
  C   C187      1.0  0.91647  0.61096  0.37242  1.0000
  C   C188      1.0  0.89690  0.61330  0.37301  1.0000
  C   C189      1.0  0.12437  0.67811  0.40963  1.0000
  C   C190      1.0  0.10566  0.65567  0.40821  1.0000
  C   C191      1.0  0.17237  0.71821  0.38672  1.0000
  C   C192      1.0  0.19200  0.74007  0.38673  1.0000
  C   C193      1.0  0.10499  0.53882  0.39984  1.0000
  C   C194      1.0  0.12383  0.53529  0.39880  1.0000
  C   C195      1.0  0.17612  0.51499  0.37365  1.0000
  C   C196      1.0  0.15634  0.51697  0.37303  1.0000
  H   H91       1.0  0.17647  0.50301  0.41464  1.0000
  H   H92       1.0  0.14298  0.50624  0.41336  1.0000
  H   H93       1.0  0.13026  0.53373  0.45908  1.0000
  H   H94       1.0  0.09822  0.53960  0.46032  1.0000
  H   H95       1.0  0.09981  0.64698  0.46758  1.0000
  H   H96       1.0  0.13125  0.68523  0.47060  1.0000
  H   H97       1.0  0.97406  0.58752  0.46021  1.0000
  H   H98       1.0  0.94226  0.59377  0.45902  1.0000
  H   H99       1.0  0.89687  0.62547  0.41348  1.0000
  H   H100      1.0  0.92999  0.62161  0.41229  1.0000
  H   H101      1.0  0.89960  0.42140  0.42866  1.0000
  H   H102      1.0  0.86614  0.38454  0.42936  1.0000
  H   H103      1.0  0.94072  0.44150  0.47067  1.0000
  H   H104      1.0  0.97241  0.47961  0.46761  1.0000
  H   H105      1.0  0.17227  0.70592  0.42729  1.0000
  H   H106      1.0  0.20534  0.74306  0.42810  1.0000
  C   C197      1.0  0.62989  0.58930  0.41028  1.0000
  C   C198      1.0  0.65226  0.59282  0.41164  1.0000
  C   C199      1.0  0.71357  0.58601  0.38888  1.0000
  C   C200      1.0  0.69187  0.58417  0.38907  1.0000
  C   C201      1.0  0.51280  0.47290  0.40202  1.0000
  C   C202      1.0  0.50905  0.45044  0.40101  1.0000
  C   C203      1.0  0.49006  0.39952  0.37472  1.0000
  C   C204      1.0  0.48770  0.37760  0.37531  1.0000
  C   C205      1.0  0.42276  0.54008  0.41161  1.0000
  C   C206      1.0  0.44522  0.54386  0.41027  1.0000
  C   C207      1.0  0.38262  0.54792  0.38837  1.0000
  C   C208      1.0  0.36076  0.54570  0.38819  1.0000
  C   C209      1.0  0.56200  0.66010  0.40208  1.0000
  C   C210      1.0  0.56552  0.68248  0.40105  1.0000
  C   C211      1.0  0.58582  0.75511  0.37593  1.0000
  C   C212      1.0  0.58383  0.73335  0.37534  1.0000
  H   H107      1.0  0.59778  0.76738  0.41696  1.0000
  H   H108      1.0  0.59455  0.73066  0.41571  1.0000
  H   H109      1.0  0.56707  0.69038  0.46134  1.0000
  H   H110      1.0  0.56121  0.65248  0.46256  1.0000
  H   H111      1.0  0.45392  0.54670  0.46964  1.0000
  H   H112      1.0  0.41564  0.53981  0.47254  1.0000
  H   H113      1.0  0.51353  0.48045  0.46245  1.0000
  H   H114      1.0  0.50729  0.44240  0.46129  1.0000
  H   H115      1.0  0.47554  0.36535  0.41581  1.0000
  H   H116      1.0  0.47941  0.40234  0.41463  1.0000
  H   H117      1.0  0.67957  0.57221  0.43015  1.0000
  H   H118      1.0  0.71643  0.57561  0.43057  1.0000
  H   H119      1.0  0.65944  0.59310  0.47262  1.0000
  H   H120      1.0  0.62130  0.58662  0.46969  1.0000
  H   H121      1.0  0.39491  0.56011  0.42882  1.0000
  H   H122      1.0  0.35777  0.55604  0.42934  1.0000
  C   C213      1.0  0.51158  0.13452  0.41234  1.0000
  C   C214      1.0  0.50805  0.15336  0.41377  1.0000
  C   C215      1.0  0.51489  0.22151  0.39109  1.0000
  C   C216      1.0  0.51671  0.20165  0.39131  1.0000
  C   C217      1.0  0.62812  0.13367  0.40350  1.0000
  C   C218      1.0  0.65057  0.15239  0.40226  1.0000
  C   C219      1.0  0.70145  0.18440  0.37501  1.0000
  C   C220      1.0  0.72339  0.20395  0.37543  1.0000
  C   C221      1.0  0.56161  0.97713  0.41346  1.0000
  C   C222      1.0  0.55791  0.99586  0.41230  1.0000
  C   C223      1.0  0.55305  0.92877  0.39143  1.0000
  C   C224      1.0  0.55534  0.90917  0.39129  1.0000
  C   C225      1.0  0.44060  0.99594  0.40352  1.0000
  C   C226      1.0  0.41825  0.97705  0.40229  1.0000
  C   C227      1.0  0.34568  0.92476  0.37607  1.0000
  C   C228      1.0  0.36745  0.94453  0.37558  1.0000
  H   H123      1.0  0.33337  0.92449  0.41657  1.0000
  H   H124      1.0  0.37008  0.95794  0.41543  1.0000
  H   H125      1.0  0.41027  0.97067  0.46250  1.0000
  H   H126      1.0  0.44813  0.00278  0.46404  1.0000
  H   H127      1.0  0.55594  0.00218  0.47197  1.0000
  H   H128      1.0  0.56270  0.97068  0.47442  1.0000
  H   H129      1.0  0.62068  0.12670  0.46398  1.0000
  H   H130      1.0  0.65871  0.15852  0.46244  1.0000
  H   H131      1.0  0.73567  0.20390  0.41543  1.0000
  H   H132      1.0  0.69868  0.17083  0.41443  1.0000
  H   H133      1.0  0.52868  0.20125  0.43233  1.0000
  H   H134      1.0  0.52529  0.23472  0.43275  1.0000
  H   H135      1.0  0.50775  0.16016  0.47477  1.0000
  H   H136      1.0  0.51425  0.12852  0.47174  1.0000
  H   H137      1.0  0.54111  0.92897  0.43294  1.0000
  H   H138      1.0  0.54527  0.89592  0.43344  1.0000
  C   C229      1.0  0.24373  0.52006  0.34509  1.0000
  C   C230      1.0  0.25784  0.51977  0.41551  1.0000
  C   C231      1.0  0.27839  0.52002  0.39439  1.0000
  H   H139      1.0  0.28805  0.51933  0.44619  1.0000
  N   N31       1.0  0.25123  0.51916  0.50635  1.0000
  O   O13       1.0  0.24835  0.50146  0.54593  1.0000
  O   O14       1.0  0.26570  0.53634  0.54928  1.0000
  C   C232      1.0  0.22268  0.51838  0.36319  1.0000
  H   H140      1.0  0.21395  0.50933  0.41632  1.0000
  C   C233      1.0  0.58078  0.81773  0.34725  1.0000
  C   C234      1.0  0.58110  0.83206  0.41764  1.0000
  C   C235      1.0  0.58088  0.85241  0.39651  1.0000
  H   H141      1.0  0.58157  0.86269  0.44830  1.0000
  N   N32       1.0  0.58173  0.82596  0.50849  1.0000
  O   O15       1.0  0.59944  0.84072  0.54801  1.0000
  O   O16       1.0  0.56456  0.82322  0.55146  1.0000
  C   C236      1.0  0.58244  0.79832  0.36537  1.0000
  H   H142      1.0  0.59148  0.79856  0.41853  1.0000
  C   C237      1.0  0.28298  0.85742  0.34626  1.0000
  C   C238      1.0  0.26914  0.84256  0.41636  1.0000
  C   C239      1.0  0.24903  0.82201  0.39451  1.0000
  H   H143      1.0  0.23909  0.81180  0.44600  1.0000
  N   N33       1.0  0.27378  0.84659  0.50951  1.0000
  O   O17       1.0  0.29293  0.84913  0.53035  1.0000
  O   O18       1.0  0.27240  0.86345  0.53643  1.0000
  C   C240      1.0  0.30228  0.87849  0.36430  1.0000
  H   H144      1.0  0.30170  0.88758  0.41531  1.0000
  C   C241      1.0  0.82978  0.60938  0.34475  1.0000
  C   C242      1.0  0.81592  0.60999  0.41513  1.0000
  C   C243      1.0  0.79555  0.61016  0.39398  1.0000
  H   H145      1.0  0.78607  0.61105  0.44576  1.0000
  N   N34       1.0  0.82261  0.61052  0.50597  1.0000
  O   O19       1.0  0.82588  0.62835  0.54518  1.0000
  O   O20       1.0  0.80800  0.59348  0.54924  1.0000
  C   C244      1.0  0.85068  0.61068  0.36282  1.0000
  H   H146      1.0  0.85959  0.61969  0.41573  1.0000
  C   C245      1.0  0.49156  0.31441  0.34697  1.0000
  C   C246      1.0  0.49095  0.29985  0.41736  1.0000
  C   C247      1.0  0.49078  0.27934  0.39620  1.0000
  H   H147      1.0  0.48987  0.26890  0.44797  1.0000
  N   N35       1.0  0.49043  0.30590  0.50820  1.0000
  O   O21       1.0  0.47260  0.29129  0.54742  1.0000
  O   O22       1.0  0.50748  0.30828  0.55144  1.0000
  C   C248      1.0  0.49028  0.33400  0.36507  1.0000
  H   H148      1.0  0.48129  0.33384  0.41800  1.0000
  C   C249      1.0  0.78672  0.27082  0.34582  1.0000
  C   C250      1.0  0.80084  0.28545  0.41592  1.0000
  C   C251      1.0  0.82112  0.30584  0.39408  1.0000
  H   H149      1.0  0.83125  0.31586  0.44558  1.0000
  N   N36       1.0  0.79632  0.28132  0.50909  1.0000
  O   O23       1.0  0.77735  0.27910  0.53035  1.0000
  O   O24       1.0  0.79740  0.26423  0.53558  1.0000
  C   C252      1.0  0.76723  0.24989  0.36385  1.0000
  H   H150      1.0  0.76771  0.24063  0.41466  1.0000
