data_image0
_chemical_formula_structural       C3NC3H5C3NC3H5C3NC3H5C3NC3H5CNHCNHCNHCNHCNHCNHCNHCNHC3NC3H5C3NC3H5C3NC3H5C3NC3H5C3NC3H5C3NC3H5C3NC3H5C3NC3H5CNHCNHCNHCNHCNHCNHCNHCNHCNHCNHCNCNCNCNCNCNCNCNCNCNCNCNCNCNCNCNCNCNCNCNCNCNCNCNCNCNCNCNCNCNCNCNCNCNCNCNCNCNCNCNCNCNCNCNCNCNCNCNCNCNCNCNCNCNCNCNCNCNCNCNCNHCNHCNHCNHC3NC3H5C3NC3H5C3NC3H5C3NC3H5C3NC3H5C3NC3H5C3NC3H5C3NC3H5CNHCNHCNHCNHCNHCNHCNHCNHC3NC3H5C3NC3H5C3NC3H5C3NC3H5C3NC3H5C3NC3H5C3NC3H5C3NC3H5C3NC3H5C3NC3H5
_chemical_formula_sum              "C270 N120 H180"
_cell_length_a       43.4161
_cell_length_b       43.4161
_cell_length_c       14.8584
_cell_angle_alpha    90
_cell_angle_beta     90
_cell_angle_gamma    90

_space_group_name_H-M_alt    "P 1"
_space_group_IT_number       1

loop_
  _space_group_symop_operation_xyz
  'x, y, z'

loop_
  _atom_site_type_symbol
  _atom_site_label
  _atom_site_symmetry_multiplicity
  _atom_site_fract_x
  _atom_site_fract_y
  _atom_site_fract_z
  _atom_site_occupancy
  C   C1        1.0  0.36326  0.02787  0.28282  1.0000
  C   C2        1.0  0.37445  0.05504  0.32550  1.0000
  C   C3        1.0  0.31172  0.04091  0.32242  1.0000
  N   N1        1.0  0.33255  0.02169  0.28414  1.0000
  C   C4        1.0  0.38274  0.00567  0.23300  1.0000
  C   C5        1.0  0.37321  0.99620  0.13698  1.0000
  C   C6        1.0  0.40066  0.01778  0.15071  1.0000
  H   H1        1.0  0.39480  0.98791  0.27134  1.0000
  H   H2        1.0  0.42322  0.00742  0.13884  1.0000
  H   H3        1.0  0.39668  0.04162  0.13032  1.0000
  H   H4        1.0  0.35284  0.00714  0.10809  1.0000
  H   H5        1.0  0.37919  0.97281  0.11653  1.0000
  C   C7        1.0  0.64522  0.97927  0.28959  1.0000
  C   C8        1.0  0.63401  0.95188  0.33098  1.0000
  C   C9        1.0  0.69671  0.96607  0.32929  1.0000
  N   N2        1.0  0.67592  0.98545  0.29152  1.0000
  C   C10       1.0  0.62582  0.00166  0.24019  1.0000
  C   C11       1.0  0.63545  0.01063  0.14383  1.0000
  C   C12       1.0  0.60714  0.99027  0.15849  1.0000
  H   H6        1.0  0.61523  0.02036  0.27824  1.0000
  H   H7        1.0  0.58500  0.00154  0.14739  1.0000
  H   H8        1.0  0.61003  0.96623  0.13844  1.0000
  H   H9        1.0  0.65517  0.99878  0.11422  1.0000
  H   H10       1.0  0.63035  0.03422  0.12309  1.0000
  C   C13       1.0  0.98046  0.36236  0.28345  1.0000
  C   C14       1.0  0.95321  0.37357  0.32565  1.0000
  C   C15       1.0  0.96723  0.31081  0.32240  1.0000
  N   N3        1.0  0.98658  0.33164  0.28469  1.0000
  C   C16       1.0  0.00285  0.38184  0.23432  1.0000
  C   C17       1.0  0.01261  0.37235  0.13851  1.0000
  C   C18       1.0  0.99101  0.39982  0.15178  1.0000
  H   H11       1.0  0.02048  0.39387  0.27320  1.0000
  H   H12       1.0  0.00143  0.42237  0.14030  1.0000
  H   H13       1.0  0.96724  0.39586  0.13073  1.0000
  H   H14       1.0  0.00175  0.35200  0.10922  1.0000
  H   H15       1.0  0.03608  0.37833  0.11873  1.0000
  C   C19       1.0  0.02908  0.64426  0.28891  1.0000
  C   C20       1.0  0.05642  0.63308  0.33065  1.0000
  C   C21       1.0  0.04210  0.69575  0.32910  1.0000
  N   N4        1.0  0.02284  0.67495  0.29092  1.0000
  C   C22       1.0  0.00682  0.62484  0.23909  1.0000
  C   C23       1.0  0.99798  0.63449  0.14265  1.0000
  C   C24       1.0  0.01843  0.60625  0.15746  1.0000
  H   H16       1.0  0.98813  0.61412  0.27684  1.0000
  H   H17       1.0  0.00727  0.58407  0.14606  1.0000
  H   H18       1.0  0.04249  0.60926  0.13774  1.0000
  H   H19       1.0  0.00979  0.65428  0.11333  1.0000
  H   H20       1.0  0.97444  0.62930  0.12155  1.0000
  C   C25       1.0  0.15656  0.57327  0.31009  1.0000
  N   N5        1.0  0.18677  0.56592  0.31157  1.0000
  H   H21       1.0  0.15015  0.59232  0.27426  1.0000
  C   C26       1.0  0.85291  0.43205  0.32617  1.0000
  N   N6        1.0  0.82274  0.43944  0.32886  1.0000
  H   H22       1.0  0.85881  0.41202  0.29436  1.0000
  C   C27       1.0  0.57449  0.85169  0.31122  1.0000
  N   N7        1.0  0.56725  0.82146  0.31283  1.0000
  H   H23       1.0  0.59364  0.85811  0.27581  1.0000
  C   C28       1.0  0.43317  0.15532  0.32528  1.0000
  N   N8        1.0  0.44067  0.18547  0.32777  1.0000
  H   H24       1.0  0.41319  0.14945  0.29317  1.0000
  C   C29       1.0  0.18523  0.08895  0.29600  1.0000
  N   N9        1.0  0.17341  0.11809  0.29248  1.0000
  H   H25       1.0  0.17539  0.07233  0.25666  1.0000
  C   C30       1.0  0.82343  0.91823  0.30047  1.0000
  N   N10       1.0  0.83546  0.88918  0.29675  1.0000
  H   H26       1.0  0.83315  0.93496  0.26130  1.0000
  C   C31       1.0  0.91923  0.18414  0.29751  1.0000
  N   N11       1.0  0.89012  0.17223  0.29453  1.0000
  H   H27       1.0  0.93584  0.17426  0.25826  1.0000
  C   C32       1.0  0.08994  0.82233  0.29889  1.0000
  N   N12       1.0  0.11902  0.83426  0.29467  1.0000
  H   H28       1.0  0.07321  0.83198  0.25958  1.0000
  C   C33       1.0  0.28526  0.60869  0.29087  1.0000
  C   C34       1.0  0.29675  0.58314  0.34133  1.0000
  C   C35       1.0  0.32199  0.64279  0.35695  1.0000
  N   N13       1.0  0.29770  0.63707  0.30243  1.0000
  C   C36       1.0  0.25935  0.60745  0.22601  1.0000
  C   C37       1.0  0.26610  0.61828  0.12920  1.0000
  C   C38       1.0  0.26016  0.58414  0.14795  1.0000
  H   H29       1.0  0.23652  0.61423  0.24969  1.0000
  H   H30       1.0  0.23782  0.57541  0.12594  1.0000
  H   H31       1.0  0.28037  0.56925  0.14323  1.0000
  H   H32       1.0  0.28991  0.62375  0.11165  1.0000
  H   H33       1.0  0.24742  0.63014  0.09431  1.0000
  C   C39       1.0  0.72472  0.39833  0.29893  1.0000
  C   C40       1.0  0.71307  0.42378  0.34949  1.0000
  C   C41       1.0  0.68747  0.36421  0.36239  1.0000
  N   N14       1.0  0.71210  0.36998  0.30923  1.0000
  C   C42       1.0  0.75102  0.39963  0.23541  1.0000
  C   C43       1.0  0.74477  0.38912  0.13802  1.0000
  C   C44       1.0  0.75081  0.42317  0.15789  1.0000
  H   H34       1.0  0.77367  0.39263  0.26004  1.0000
  H   H35       1.0  0.77333  0.43182  0.13722  1.0000
  H   H36       1.0  0.73072  0.43820  0.15254  1.0000
  H   H37       1.0  0.72104  0.38385  0.11916  1.0000
  H   H38       1.0  0.76359  0.37724  0.10376  1.0000
  C   C45       1.0  0.61014  0.72295  0.29253  1.0000
  C   C46       1.0  0.58451  0.71146  0.34267  1.0000
  C   C47       1.0  0.64410  0.68606  0.35844  1.0000
  N   N15       1.0  0.63847  0.71044  0.30420  1.0000
  C   C48       1.0  0.60903  0.74897  0.22799  1.0000
  C   C49       1.0  0.62000  0.74236  0.13123  1.0000
  C   C50       1.0  0.58584  0.74831  0.14962  1.0000
  H   H39       1.0  0.61578  0.77176  0.25208  1.0000
  H   H40       1.0  0.57716  0.77068  0.12780  1.0000
  H   H41       1.0  0.57094  0.72811  0.14443  1.0000
  H   H42       1.0  0.62548  0.71858  0.11344  1.0000
  H   H43       1.0  0.63193  0.76110  0.09676  1.0000
  C   C51       1.0  0.39979  0.28350  0.29706  1.0000
  C   C52       1.0  0.42515  0.29511  0.34806  1.0000
  C   C53       1.0  0.36553  0.32056  0.36074  1.0000
  N   N16       1.0  0.37139  0.29604  0.30725  1.0000
  C   C54       1.0  0.40123  0.25730  0.23323  1.0000
  C   C55       1.0  0.39089  0.26370  0.13577  1.0000
  C   C56       1.0  0.42491  0.25765  0.15608  1.0000
  H   H44       1.0  0.39419  0.23461  0.25743  1.0000
  H   H45       1.0  0.43361  0.23516  0.13523  1.0000
  H   H46       1.0  0.43993  0.27775  0.15123  1.0000
  H   H47       1.0  0.38564  0.28747  0.11714  1.0000
  H   H48       1.0  0.37909  0.24494  0.10107  1.0000
  C   C57       1.0  0.19725  0.92688  0.27196  1.0000
  C   C58       1.0  0.21688  0.90466  0.31375  1.0000
  C   C59       1.0  0.22923  0.96865  0.32035  1.0000
  N   N17       1.0  0.20392  0.95761  0.27754  1.0000
  C   C60       1.0  0.17001  0.91874  0.21693  1.0000
  C   C61       1.0  0.16744  0.93219  0.12120  1.0000
  C   C62       1.0  0.17502  0.89806  0.13384  1.0000
  H   H49       1.0  0.14803  0.91530  0.25124  1.0000
  H   H50       1.0  0.15633  0.88216  0.11765  1.0000
  H   H51       1.0  0.19866  0.89168  0.11706  1.0000
  H   H52       1.0  0.18656  0.94615  0.09638  1.0000
  H   H53       1.0  0.14418  0.93688  0.09687  1.0000
  C   C63       1.0  0.81197  0.07965  0.27697  1.0000
  C   C64       1.0  0.79212  0.10215  0.31660  1.0000
  C   C65       1.0  0.77931  0.03825  0.32419  1.0000
  N   N18       1.0  0.80507  0.04899  0.28304  1.0000
  C   C66       1.0  0.83980  0.08734  0.22395  1.0000
  C   C67       1.0  0.84334  0.07333  0.12918  1.0000
  C   C68       1.0  0.83570  0.10754  0.13943  1.0000
  H   H54       1.0  0.86141  0.09099  0.26002  1.0000
  H   H55       1.0  0.85456  0.12331  0.12413  1.0000
  H   H56       1.0  0.81224  0.11385  0.12025  1.0000
  H   H57       1.0  0.82448  0.05925  0.10339  1.0000
  H   H58       1.0  0.86685  0.06846  0.10720  1.0000
  C   C69       1.0  0.08120  0.19653  0.27102  1.0000
  C   C70       1.0  0.10342  0.21602  0.31338  1.0000
  C   C71       1.0  0.03945  0.22832  0.32048  1.0000
  N   N19       1.0  0.05047  0.20317  0.27686  1.0000
  C   C72       1.0  0.08934  0.16952  0.21505  1.0000
  C   C73       1.0  0.07589  0.16736  0.11922  1.0000
  C   C74       1.0  0.11003  0.17485  0.13216  1.0000
  H   H59       1.0  0.09273  0.14739  0.24857  1.0000
  H   H60       1.0  0.12591  0.15621  0.11533  1.0000
  H   H61       1.0  0.11644  0.19855  0.11622  1.0000
  H   H62       1.0  0.06196  0.18660  0.09506  1.0000
  H   H63       1.0  0.07118  0.14421  0.09405  1.0000
  C   C75       1.0  0.92845  0.81121  0.27788  1.0000
  C   C76       1.0  0.90594  0.79122  0.31690  1.0000
  C   C77       1.0  0.96985  0.77831  0.32376  1.0000
  N   N20       1.0  0.95911  0.80426  0.28365  1.0000
  C   C78       1.0  0.92076  0.83931  0.22607  1.0000
  C   C79       1.0  0.93479  0.84335  0.13148  1.0000
  C   C80       1.0  0.90058  0.83562  0.14136  1.0000
  H   H64       1.0  0.91707  0.86072  0.26307  1.0000
  H   H65       1.0  0.88479  0.85455  0.12685  1.0000
  H   H66       1.0  0.89429  0.81226  0.12117  1.0000
  H   H67       1.0  0.94890  0.82462  0.10489  1.0000
  H   H68       1.0  0.93964  0.86696  0.11054  1.0000
  C   C81       1.0  0.26584  0.41689  0.33577  1.0000
  N   N21       1.0  0.26034  0.44758  0.33297  1.0000
  H   H69       1.0  0.24980  0.40261  0.30763  1.0000
  C   C82       1.0  0.74410  0.58985  0.34016  1.0000
  N   N22       1.0  0.74968  0.55915  0.33866  1.0000
  H   H70       1.0  0.76017  0.60404  0.31175  1.0000
  C   C83       1.0  0.41827  0.74235  0.33446  1.0000
  N   N23       1.0  0.44898  0.74779  0.33192  1.0000
  H   H71       1.0  0.40405  0.75832  0.30569  1.0000
  C   C84       1.0  0.59122  0.26406  0.34156  1.0000
  N   N24       1.0  0.56054  0.25842  0.33970  1.0000
  H   H72       1.0  0.60549  0.24792  0.31377  1.0000
  C   C85       1.0  0.20551  0.28156  0.32504  1.0000
  N   N25       1.0  0.22784  0.30371  0.32858  1.0000
  H   H73       1.0  0.18461  0.28760  0.29887  1.0000
  C   C86       1.0  0.80404  0.72553  0.32756  1.0000
  N   N26       1.0  0.78180  0.70328  0.33071  1.0000
  H   H74       1.0  0.82506  0.71953  0.30206  1.0000
  C   C87       1.0  0.72662  0.20420  0.32804  1.0000
  N   N27       1.0  0.70444  0.22649  0.33161  1.0000
  H   H75       1.0  0.72054  0.18322  0.30251  1.0000
  C   C88       1.0  0.28265  0.80273  0.32460  1.0000
  N   N28       1.0  0.30485  0.78045  0.32773  1.0000
  H   H76       1.0  0.28860  0.82366  0.29840  1.0000
  C   C89       1.0  0.49734  0.97491  0.32215  1.0000
  N   N29       1.0  0.47551  0.99712  0.32039  1.0000
  H   H77       1.0  0.49201  0.95406  0.29418  1.0000
  C   C90       1.0  0.03334  0.49644  0.32214  1.0000
  N   N30       1.0  0.01111  0.47463  0.32044  1.0000
  H   H78       1.0  0.05416  0.49111  0.29404  1.0000
  C   C91       1.0  0.22918  0.05445  0.33432  1.0000
  N   N31       1.0  0.21809  0.02488  0.32783  1.0000
  C   C92       1.0  0.23781  0.00018  0.32042  1.0000
  N   N32       1.0  0.26864  0.00575  0.31782  1.0000
  C   C93       1.0  0.28014  0.03461  0.32150  1.0000
  N   N33       1.0  0.26011  0.05809  0.32995  1.0000
  C   C94       1.0  0.77932  0.95246  0.33945  1.0000
  N   N34       1.0  0.79039  0.98202  0.33225  1.0000
  C   C95       1.0  0.77066  0.00673  0.32528  1.0000
  N   N35       1.0  0.73983  0.00117  0.32370  1.0000
  C   C96       1.0  0.72831  0.97233  0.32819  1.0000
  N   N36       1.0  0.74837  0.94884  0.33612  1.0000
  C   C97       1.0  0.95366  0.22827  0.33483  1.0000
  N   N37       1.0  0.98324  0.21718  0.32831  1.0000
  C   C98       1.0  0.00793  0.23690  0.32075  1.0000
  N   N38       1.0  0.00237  0.26772  0.31794  1.0000
  C   C99       1.0  0.97351  0.27923  0.32161  1.0000
  N   N39       1.0  0.95002  0.25919  0.33024  1.0000
  C   C100      1.0  0.05566  0.77836  0.33884  1.0000
  N   N40       1.0  0.02609  0.78941  0.33163  1.0000
  C   C101      1.0  0.00138  0.76968  0.32483  1.0000
  N   N41       1.0  0.00696  0.73884  0.32342  1.0000
  C   C102      1.0  0.03580  0.72733  0.32799  1.0000
  N   N42       1.0  0.05929  0.74741  0.33571  1.0000
  C   C103      1.0  0.27983  0.55491  0.34955  1.0000
  N   N43       1.0  0.29107  0.52543  0.35790  1.0000
  C   C104      1.0  0.27149  0.50056  0.36346  1.0000
  N   N44       1.0  0.24062  0.50594  0.36304  1.0000
  C   C105      1.0  0.22894  0.53466  0.35708  1.0000
  N   N45       1.0  0.24883  0.55832  0.35040  1.0000
  C   C106      1.0  0.73001  0.45195  0.35883  1.0000
  N   N46       1.0  0.71884  0.48149  0.36542  1.0000
  C   C107      1.0  0.73848  0.50630  0.37123  1.0000
  N   N47       1.0  0.76934  0.50085  0.37242  1.0000
  C   C108      1.0  0.78097  0.47205  0.36844  1.0000
  N   N48       1.0  0.76098  0.44845  0.36153  1.0000
  C   C109      1.0  0.55626  0.72836  0.35062  1.0000
  N   N49       1.0  0.52677  0.71711  0.35846  1.0000
  C   C110      1.0  0.50188  0.73668  0.36357  1.0000
  N   N50       1.0  0.50724  0.76754  0.36326  1.0000
  C   C111      1.0  0.53596  0.77925  0.35780  1.0000
  N   N51       1.0  0.55965  0.75937  0.35150  1.0000
  C   C112      1.0  0.45329  0.27815  0.35774  1.0000
  N   N52       1.0  0.48282  0.28930  0.36478  1.0000
  C   C113      1.0  0.50760  0.26964  0.37097  1.0000
  N   N53       1.0  0.50212  0.23878  0.37208  1.0000
  C   C114      1.0  0.47331  0.22719  0.36760  1.0000
  N   N54       1.0  0.44975  0.24719  0.36037  1.0000
  C   C115      1.0  0.17619  0.17301  0.33139  1.0000
  N   N55       1.0  0.14607  0.18022  0.31976  1.0000
  C   C116      1.0  0.13587  0.20990  0.31860  1.0000
  N   N56       1.0  0.15736  0.23271  0.33078  1.0000
  C   C117      1.0  0.18809  0.22696  0.34283  1.0000
  N   N57       1.0  0.19633  0.19669  0.34285  1.0000
  C   C118      1.0  0.83302  0.83419  0.33521  1.0000
  N   N58       1.0  0.86318  0.82706  0.32377  1.0000
  C   C119      1.0  0.87346  0.79741  0.32212  1.0000
  N   N59       1.0  0.85196  0.77455  0.33357  1.0000
  C   C120      1.0  0.82121  0.78020  0.34551  1.0000
  N   N60       1.0  0.81291  0.81045  0.34601  1.0000
  C   C121      1.0  0.83522  0.17498  0.33382  1.0000
  N   N61       1.0  0.82800  0.14484  0.32259  1.0000
  C   C122      1.0  0.79833  0.13462  0.32153  1.0000
  N   N62       1.0  0.77553  0.15616  0.33343  1.0000
  C   C123      1.0  0.78128  0.18690  0.34516  1.0000
  N   N63       1.0  0.81155  0.19515  0.34504  1.0000
  C   C124      1.0  0.17403  0.83179  0.33282  1.0000
  N   N64       1.0  0.18114  0.86193  0.32095  1.0000
  C   C125      1.0  0.21080  0.87220  0.31918  1.0000
  N   N65       1.0  0.23368  0.85075  0.33096  1.0000
  C   C126      1.0  0.22803  0.82001  0.34319  1.0000
  N   N66       1.0  0.19778  0.81170  0.34384  1.0000
  C   C127      1.0  0.33255  0.67348  0.36449  1.0000
  N   N67       1.0  0.36302  0.68007  0.37050  1.0000
  C   C128      1.0  0.37387  0.70952  0.37169  1.0000
  N   N68       1.0  0.35265  0.73284  0.36543  1.0000
  C   C129      1.0  0.32170  0.72747  0.36061  1.0000
  N   N69       1.0  0.31241  0.69749  0.35952  1.0000
  C   C130      1.0  0.67685  0.33350  0.36904  1.0000
  N   N70       1.0  0.64638  0.32686  0.37529  1.0000
  C   C131      1.0  0.63554  0.29740  0.37620  1.0000
  N   N71       1.0  0.65679  0.27413  0.36950  1.0000
  C   C132      1.0  0.68773  0.27952  0.36436  1.0000
  N   N72       1.0  0.69699  0.30950  0.36359  1.0000
  C   C133      1.0  0.67480  0.67550  0.36628  1.0000
  N   N73       1.0  0.68144  0.64505  0.37307  1.0000
  C   C134      1.0  0.71091  0.63426  0.37489  1.0000
  N   N74       1.0  0.73419  0.65551  0.36850  1.0000
  C   C135      1.0  0.72877  0.68643  0.36292  1.0000
  N   N75       1.0  0.69878  0.69566  0.36125  1.0000
  C   C136      1.0  0.33482  0.33119  0.36707  1.0000
  N   N76       1.0  0.32825  0.36168  0.37260  1.0000
  C   C137      1.0  0.29882  0.37257  0.37294  1.0000
  N   N77       1.0  0.27550  0.35136  0.36638  1.0000
  C   C138      1.0  0.28083  0.32039  0.36200  1.0000
  N   N78       1.0  0.31080  0.31107  0.36174  1.0000
  C   C139      1.0  0.44459  0.10128  0.35674  1.0000
  N   N79       1.0  0.46606  0.07863  0.35883  1.0000
  C   C140      1.0  0.45835  0.04855  0.34936  1.0000
  N   N80       1.0  0.42833  0.04104  0.33714  1.0000
  C   C141      1.0  0.40604  0.06290  0.33390  1.0000
  N   N81       1.0  0.41480  0.09273  0.34417  1.0000
  C   C142      1.0  0.56393  0.90514  0.35208  1.0000
  N   N82       1.0  0.54238  0.92768  0.35652  1.0000
  C   C143      1.0  0.54996  0.95798  0.35345  1.0000
  N   N83       1.0  0.58012  0.96550  0.34379  1.0000
  C   C144      1.0  0.60247  0.94380  0.33771  1.0000
  N   N84       1.0  0.59379  0.91381  0.34263  1.0000
  C   C145      1.0  0.90696  0.44370  0.35692  1.0000
  N   N85       1.0  0.92960  0.46519  0.35900  1.0000
  C   C146      1.0  0.95969  0.45749  0.34952  1.0000
  N   N86       1.0  0.96721  0.42747  0.33732  1.0000
  C   C147      1.0  0.94537  0.40516  0.33409  1.0000
  N   N87       1.0  0.91554  0.41392  0.34436  1.0000
  C   C148      1.0  0.10314  0.56300  0.35182  1.0000
  N   N88       1.0  0.08060  0.54145  0.35635  1.0000
  C   C149      1.0  0.05030  0.54906  0.35329  1.0000
  N   N89       1.0  0.04281  0.57922  0.34355  1.0000
  C   C150      1.0  0.06452  0.60156  0.33740  1.0000
  N   N90       1.0  0.09452  0.59287  0.34229  1.0000
  C   C151      1.0  0.35202  0.07476  0.36360  1.0000
  N   N91       1.0  0.32186  0.06733  0.36082  1.0000
  H   H79       1.0  0.35793  0.09469  0.39590  1.0000
  C   C152      1.0  0.65638  0.93201  0.36871  1.0000
  N   N92       1.0  0.68654  0.93947  0.36656  1.0000
  H   H80       1.0  0.65040  0.91190  0.39996  1.0000
  C   C153      1.0  0.93336  0.35113  0.36319  1.0000
  N   N93       1.0  0.94074  0.32097  0.36036  1.0000
  H   H81       1.0  0.91336  0.35705  0.39513  1.0000
  C   C154      1.0  0.07619  0.65546  0.36875  1.0000
  N   N94       1.0  0.06867  0.68561  0.36666  1.0000
  H   H82       1.0  0.09625  0.64949  0.40026  1.0000
  C   C155      1.0  0.14641  0.52894  0.40365  1.0000
  C   C156      1.0  0.13470  0.55482  0.35571  1.0000
  C   C157      1.0  0.19734  0.54063  0.35516  1.0000
  N   N95       1.0  0.17707  0.52268  0.40048  1.0000
  C   C158      1.0  0.12765  0.50859  0.46197  1.0000
  C   C159      1.0  0.13863  0.50215  0.55881  1.0000
  C   C160      1.0  0.11110  0.52345  0.54292  1.0000
  H   H83       1.0  0.11488  0.48983  0.43030  1.0000
  H   H84       1.0  0.08870  0.51373  0.56054  1.0000
  H   H85       1.0  0.11553  0.54779  0.55620  1.0000
  H   H86       1.0  0.15949  0.51378  0.58190  1.0000
  H   H87       1.0  0.13286  0.47957  0.58639  1.0000
  C   C161      1.0  0.86411  0.47909  0.40622  1.0000
  C   C162      1.0  0.87536  0.45181  0.36414  1.0000
  C   C163      1.0  0.81258  0.46591  0.36682  1.0000
  N   N96       1.0  0.83339  0.48522  0.40475  1.0000
  C   C164      1.0  0.88350  0.50149  0.45570  1.0000
  C   C165      1.0  0.87370  0.51210  0.55045  1.0000
  C   C166      1.0  0.90048  0.48950  0.53984  1.0000
  H   H88       1.0  0.89654  0.51838  0.41679  1.0000
  H   H89       1.0  0.92328  0.49922  0.55238  1.0000
  H   H90       1.0  0.89556  0.46603  0.56187  1.0000
  H   H91       1.0  0.85275  0.50210  0.57889  1.0000
  H   H92       1.0  0.88032  0.53544  0.56944  1.0000
  C   C167      1.0  0.52983  0.86182  0.40340  1.0000
  C   C168      1.0  0.55583  0.87356  0.35606  1.0000
  C   C169      1.0  0.54186  0.81086  0.35584  1.0000
  N   N97       1.0  0.52368  0.83113  0.40040  1.0000
  C   C170      1.0  0.50919  0.88058  0.46087  1.0000
  C   C171      1.0  0.50237  0.86968  0.55756  1.0000
  C   C172      1.0  0.52369  0.89723  0.54219  1.0000
  H   H93       1.0  0.49055  0.89330  0.42843  1.0000
  H   H94       1.0  0.51386  0.91963  0.55928  1.0000
  H   H95       1.0  0.54798  0.89286  0.55636  1.0000
  H   H96       1.0  0.51394  0.84886  0.58122  1.0000
  H   H97       1.0  0.47967  0.87544  0.58429  1.0000
  C   C173      1.0  0.48000  0.14406  0.40628  1.0000
  C   C174      1.0  0.45277  0.13286  0.36385  1.0000
  C   C175      1.0  0.46710  0.19559  0.36609  1.0000
  N   N98       1.0  0.48625  0.17476  0.40461  1.0000
  C   C176      1.0  0.50220  0.12466  0.45646  1.0000
  C   C177      1.0  0.51254  0.13451  0.55142  1.0000
  C   C178      1.0  0.48993  0.10775  0.54040  1.0000
  H   H98       1.0  0.51920  0.11157  0.41807  1.0000
  H   H99       1.0  0.49958  0.08494  0.55334  1.0000
  H   H100      1.0  0.46641  0.11272  0.56179  1.0000
  H   H101      1.0  0.50249  0.15549  0.57946  1.0000
  H   H102      1.0  0.53582  0.12787  0.57106  1.0000
  C   C179      1.0  0.22417  0.10770  0.39714  1.0000
  C   C180      1.0  0.21222  0.08251  0.34604  1.0000
  C   C181      1.0  0.18655  0.14216  0.33701  1.0000
  N   N99       1.0  0.21148  0.13607  0.38866  1.0000
  C   C182      1.0  0.25109  0.10627  0.45841  1.0000
  C   C183      1.0  0.24556  0.11585  0.55698  1.0000
  C   C184      1.0  0.25212  0.08212  0.53427  1.0000
  H   H103      1.0  0.27332  0.11403  0.43260  1.0000
  H   H104      1.0  0.27499  0.07380  0.55251  1.0000
  H   H105      1.0  0.23239  0.06663  0.54020  1.0000
  H   H106      1.0  0.22192  0.12046  0.57812  1.0000
  H   H107      1.0  0.26445  0.12788  0.59047  1.0000
  C   C185      1.0  0.78463  0.89914  0.40160  1.0000
  C   C186      1.0  0.79636  0.92442  0.35047  1.0000
  C   C187      1.0  0.82250  0.86498  0.34116  1.0000
  N   N100      1.0  0.79753  0.87086  0.39289  1.0000
  C   C188      1.0  0.75776  0.90034  0.46308  1.0000
  C   C189      1.0  0.76342  0.89071  0.56156  1.0000
  C   C190      1.0  0.75666  0.92442  0.53912  1.0000
  H   H108      1.0  0.73554  0.89249  0.43734  1.0000
  H   H109      1.0  0.73375  0.93260  0.55758  1.0000
  H   H110      1.0  0.77630  0.94001  0.54504  1.0000
  H   H111      1.0  0.78712  0.88621  0.58250  1.0000
  H   H112      1.0  0.74463  0.87856  0.59510  1.0000
  C   C191      1.0  0.90048  0.22328  0.39806  1.0000
  C   C192      1.0  0.92563  0.21129  0.34687  1.0000
  C   C193      1.0  0.86606  0.18540  0.33903  1.0000
  N   N101      1.0  0.87214  0.21048  0.39011  1.0000
  C   C194      1.0  0.90189  0.25033  0.45882  1.0000
  C   C195      1.0  0.89244  0.24499  0.55759  1.0000
  C   C196      1.0  0.92612  0.25161  0.53442  1.0000
  H   H113      1.0  0.89403  0.27249  0.43265  1.0000
  H   H114      1.0  0.93439  0.27455  0.55214  1.0000
  H   H115      1.0  0.94168  0.23194  0.54057  1.0000
  H   H116      1.0  0.88793  0.22138  0.57922  1.0000
  H   H117      1.0  0.88039  0.26392  0.59084  1.0000
  C   C197      1.0  0.10903  0.78370  0.40054  1.0000
  C   C198      1.0  0.08371  0.79541  0.34950  1.0000
  C   C199      1.0  0.14323  0.82133  0.33911  1.0000
  N   N102      1.0  0.13733  0.79650  0.39138  1.0000
  C   C200      1.0  0.10780  0.75699  0.46260  1.0000
  C   C201      1.0  0.11755  0.76286  0.56087  1.0000
  C   C202      1.0  0.08380  0.75615  0.53886  1.0000
  H   H118      1.0  0.11556  0.73468  0.43727  1.0000
  H   H119      1.0  0.07556  0.73331  0.55788  1.0000
  H   H120      1.0  0.06827  0.77585  0.54450  1.0000
  H   H121      1.0  0.12214  0.78658  0.58126  1.0000
  H   H122      1.0  0.12968  0.74411  0.59469  1.0000
  C   C203      1.0  0.32315  0.58927  0.39432  1.0000
  N   N103      1.0  0.33482  0.61840  0.40080  1.0000
  H   H123      1.0  0.33264  0.57237  0.43336  1.0000
  C   C204      1.0  0.68630  0.41765  0.40086  1.0000
  N   N104      1.0  0.67451  0.38854  0.40619  1.0000
  H   H124      1.0  0.67668  0.43447  0.43991  1.0000
  C   C205      1.0  0.59052  0.68493  0.39525  1.0000
  N   N105      1.0  0.61964  0.67322  0.40193  1.0000
  H   H125      1.0  0.57359  0.67544  0.43412  1.0000
  C   C206      1.0  0.41891  0.32177  0.39982  1.0000
  N   N106      1.0  0.38977  0.33350  0.40499  1.0000
  H   H126      1.0  0.43566  0.33133  0.43924  1.0000
  C   C207      1.0  0.24336  0.91687  0.35613  1.0000
  N   N107      1.0  0.24867  0.94763  0.35752  1.0000
  H   H127      1.0  0.25884  0.90291  0.38813  1.0000
  C   C208      1.0  0.76520  0.09024  0.35730  1.0000
  N   N108      1.0  0.75970  0.05953  0.35927  1.0000
  H   H128      1.0  0.74951  0.10438  0.38771  1.0000
  C   C209      1.0  0.09122  0.24235  0.35658  1.0000
  N   N109      1.0  0.06046  0.24764  0.35821  1.0000
  H   H129      1.0  0.10518  0.25771  0.38902  1.0000
  C   C210      1.0  0.91785  0.76412  0.35658  1.0000
  N   N110      1.0  0.94856  0.75859  0.35827  1.0000
  H   H130      1.0  0.90372  0.74833  0.38653  1.0000
  C   C211      1.0  0.31345  0.42789  0.41138  1.0000
  C   C212      1.0  0.29314  0.40518  0.37478  1.0000
  C   C213      1.0  0.28024  0.46905  0.36559  1.0000
  N   N111      1.0  0.30647  0.45852  0.40459  1.0000
  C   C214      1.0  0.34193  0.42050  0.46175  1.0000
  C   C215      1.0  0.34715  0.43544  0.55462  1.0000
  C   C216      1.0  0.33869  0.40130  0.54856  1.0000
  H   H131      1.0  0.36288  0.41584  0.42340  1.0000
  H   H132      1.0  0.35747  0.38532  0.56306  1.0000
  H   H133      1.0  0.31543  0.39569  0.57125  1.0000
  H   H134      1.0  0.32895  0.45020  0.58133  1.0000
  H   H135      1.0  0.37103  0.44007  0.57312  1.0000
  C   C217      1.0  0.69635  0.57912  0.41532  1.0000
  C   C218      1.0  0.71668  0.60169  0.37812  1.0000
  C   C219      1.0  0.72972  0.53780  0.37165  1.0000
  N   N112      1.0  0.70340  0.54848  0.40985  1.0000
  C   C220      1.0  0.66779  0.58670  0.46509  1.0000
  C   C221      1.0  0.66257  0.57224  0.55860  1.0000
  C   C222      1.0  0.67087  0.60638  0.55102  1.0000
  H   H136      1.0  0.64685  0.59102  0.42637  1.0000
  H   H137      1.0  0.65200  0.62235  0.56463  1.0000
  H   H138      1.0  0.69407  0.61223  0.57361  1.0000
  H   H139      1.0  0.68082  0.55772  0.58616  1.0000
  H   H140      1.0  0.63869  0.56760  0.57716  1.0000
  C   C223      1.0  0.42907  0.69494  0.41135  1.0000
  C   C224      1.0  0.40646  0.71518  0.37395  1.0000
  C   C225      1.0  0.47036  0.72794  0.36527  1.0000
  N   N113      1.0  0.45973  0.70185  0.40483  1.0000
  C   C226      1.0  0.42151  0.66664  0.46238  1.0000
  C   C227      1.0  0.43617  0.66180  0.55582  1.0000
  C   C228      1.0  0.40203  0.67016  0.54855  1.0000
  H   H141      1.0  0.41706  0.64553  0.42457  1.0000
  H   H142      1.0  0.38604  0.65140  0.56319  1.0000
  H   H143      1.0  0.39630  0.69349  0.57036  1.0000
  H   H144      1.0  0.45080  0.68013  0.58237  1.0000
  H   H145      1.0  0.44078  0.63800  0.57521  1.0000
  C   C229      1.0  0.58028  0.31201  0.41532  1.0000
  C   C230      1.0  0.60296  0.29160  0.37904  1.0000
  C   C231      1.0  0.53910  0.27842  0.37189  1.0000
  N   N114      1.0  0.54966  0.30488  0.40953  1.0000
  C   C232      1.0  0.58767  0.34075  0.46444  1.0000
  C   C233      1.0  0.57289  0.34634  0.55734  1.0000
  C   C234      1.0  0.60704  0.33796  0.55105  1.0000
  H   H146      1.0  0.59220  0.36153  0.42519  1.0000
  H   H147      1.0  0.62299  0.35684  0.56455  1.0000
  H   H148      1.0  0.61275  0.31482  0.57456  1.0000
  H   H149      1.0  0.55824  0.32824  0.58503  1.0000
  H   H150      1.0  0.56823  0.37031  0.57498  1.0000
  C   C235      1.0  0.24121  0.24578  0.38949  1.0000
  C   C236      1.0  0.21113  0.25082  0.35339  1.0000
  C   C237      1.0  0.25684  0.29793  0.35897  1.0000
  N   N115      1.0  0.26240  0.26893  0.38904  1.0000
  C   C238      1.0  0.25169  0.21678  0.43222  1.0000
  C   C239      1.0  0.26826  0.21774  0.52394  1.0000
  C   C240      1.0  0.23473  0.20710  0.51892  1.0000
  H   H151      1.0  0.25822  0.19759  0.38871  1.0000
  H   H152      1.0  0.23124  0.18240  0.52849  1.0000
  H   H153      1.0  0.21807  0.22318  0.54741  1.0000
  H   H154      1.0  0.27162  0.24026  0.55537  1.0000
  H   H155      1.0  0.28499  0.19951  0.53637  1.0000
  C   C241      1.0  0.76799  0.76122  0.39073  1.0000
  C   C242      1.0  0.79821  0.75627  0.35550  1.0000
  C   C243      1.0  0.75268  0.70898  0.36023  1.0000
  N   N116      1.0  0.74690  0.73798  0.38989  1.0000
  C   C244      1.0  0.75725  0.79019  0.43307  1.0000
  C   C245      1.0  0.74024  0.78923  0.52409  1.0000
  C   C246      1.0  0.77380  0.79983  0.52046  1.0000
  H   H156      1.0  0.75096  0.80940  0.38933  1.0000
  H   H157      1.0  0.77727  0.82452  0.53024  1.0000
  H   H158      1.0  0.79029  0.78373  0.54964  1.0000
  H   H159      1.0  0.73670  0.76670  0.55535  1.0000
  H   H160      1.0  0.72348  0.80748  0.53587  1.0000
  C   C247      1.0  0.76249  0.24014  0.39089  1.0000
  C   C248      1.0  0.75742  0.20995  0.35562  1.0000
  C   C249      1.0  0.71023  0.25558  0.36123  1.0000
  N   N117      1.0  0.73930  0.26128  0.39050  1.0000
  C   C250      1.0  0.79157  0.25080  0.43277  1.0000
  C   C251      1.0  0.79084  0.26775  0.52391  1.0000
  C   C252      1.0  0.80138  0.23417  0.51990  1.0000
  H   H161      1.0  0.81070  0.25710  0.38872  1.0000
  H   H162      1.0  0.82611  0.23067  0.52920  1.0000
  H   H163      1.0  0.78534  0.21770  0.54925  1.0000
  H   H164      1.0  0.76836  0.27130  0.55560  1.0000
  H   H165      1.0  0.80911  0.28448  0.53545  1.0000
  C   C253      1.0  0.24707  0.76692  0.38945  1.0000
  C   C254      1.0  0.25196  0.79703  0.35335  1.0000
  C   C255      1.0  0.29919  0.75142  0.35805  1.0000
  N   N118      1.0  0.27026  0.74578  0.38853  1.0000
  C   C256      1.0  0.21817  0.75635  0.43259  1.0000
  C   C257      1.0  0.21934  0.73974  0.52420  1.0000
  C   C258      1.0  0.20863  0.77325  0.51952  1.0000
  H   H166      1.0  0.19890  0.74982  0.38935  1.0000
  H   H167      1.0  0.18394  0.77668  0.52953  1.0000
  H   H168      1.0  0.22473  0.78991  0.54784  1.0000
  H   H169      1.0  0.24193  0.73640  0.55525  1.0000
  H   H170      1.0  0.20116  0.72296  0.53686  1.0000
  C   C259      1.0  0.53177  0.01076  0.39520  1.0000
  C   C260      1.0  0.52693  0.98096  0.35801  1.0000
  C   C261      1.0  0.48102  0.02575  0.35286  1.0000
  N   N119      1.0  0.50889  0.03194  0.38974  1.0000
  C   C262      1.0  0.56010  0.02086  0.44226  1.0000
  C   C263      1.0  0.55651  0.03469  0.53724  1.0000
  C   C264      1.0  0.57112  0.00288  0.52569  1.0000
  H   H171      1.0  0.57819  0.03175  0.40248  1.0000
  H   H172      1.0  0.59598  0.00193  0.53580  1.0000
  H   H173      1.0  0.55687  0.98360  0.54821  1.0000
  H   H174      1.0  0.53370  0.03435  0.56807  1.0000
  H   H175      1.0  0.57263  0.05298  0.55546  1.0000
  C   C265      1.0  0.99752  0.53092  0.39519  1.0000
  C   C266      1.0  0.02731  0.52605  0.35793  1.0000
  C   C267      1.0  0.98248  0.48016  0.35296  1.0000
  N   N120      1.0  0.97632  0.50805  0.38982  1.0000
  C   C268      1.0  0.98746  0.55927  0.44220  1.0000
  C   C269      1.0  0.97365  0.55574  0.53722  1.0000
  C   C270      1.0  0.00549  0.57029  0.52555  1.0000
  H   H176      1.0  0.97661  0.57738  0.40237  1.0000
  H   H177      1.0  0.00648  0.59515  0.53558  1.0000
  H   H178      1.0  0.02475  0.55602  0.54806  1.0000
  H   H179      1.0  0.97397  0.53295  0.56813  1.0000
  H   H180      1.0  0.95540  0.57190  0.55545  1.0000
