data_image0
_chemical_formula_structural       C3NC3NC5NC5NC20H18C4H4C3HC4HN2H2O2NC3HC4HN2H2O2NC8H8C5H2NH2NO2NC5H2NH2NO2N
_chemical_formula_sum              "C72 N16 H46 O8"
_cell_length_a       29.7765
_cell_length_b       29.7764
_cell_length_c       14.9516
_cell_angle_alpha    90
_cell_angle_beta     90
_cell_angle_gamma    90.0328

_space_group_name_H-M_alt    "P 1"
_space_group_IT_number       1

loop_
  _space_group_symop_operation_xyz
  'x, y, z'

loop_
  _atom_site_type_symbol
  _atom_site_label
  _atom_site_symmetry_multiplicity
  _atom_site_fract_x
  _atom_site_fract_y
  _atom_site_fract_z
  _atom_site_occupancy
  C   C1        1.0  0.92188  0.88253  0.31574  1.0000
  C   C2        1.0  0.88779  0.91390  0.31479  1.0000
  C   C3        1.0  0.90710  0.95670  0.31538  1.0000
  N   N1        1.0  0.95208  0.94959  0.31839  1.0000
  C   C4        1.0  0.96291  0.90533  0.31797  1.0000
  C   C5        1.0  0.00589  0.88437  0.31814  1.0000
  C   C6        1.0  0.04749  0.90773  0.31945  1.0000
  N   N2        1.0  0.05434  0.95262  0.32088  1.0000
  C   C7        1.0  0.09851  0.96313  0.31985  1.0000
  C   C8        1.0  0.12150  0.92224  0.31817  1.0000
  C   C9        1.0  0.09009  0.88814  0.31838  1.0000
  C   C10       1.0  0.11834  0.00655  0.31843  1.0000
  C   C11       1.0  0.09391  0.04764  0.31770  1.0000
  N   N3        1.0  0.04892  0.05481  0.31913  1.0000
  C   C12       1.0  0.03814  0.09903  0.31520  1.0000
  C   C13       1.0  0.07920  0.12177  0.31256  1.0000
  C   C14       1.0  0.11327  0.09038  0.31444  1.0000
  C   C15       1.0  0.99518  0.11997  0.31264  1.0000
  C   C16       1.0  0.95354  0.09659  0.31286  1.0000
  N   N4        1.0  0.94666  0.05171  0.31477  1.0000
  C   C17       1.0  0.90248  0.04118  0.31307  1.0000
  C   C18       1.0  0.87951  0.08203  0.30985  1.0000
  C   C19       1.0  0.91091  0.11613  0.31037  1.0000
  C   C20       1.0  0.88264  0.99778  0.31292  1.0000
  C   C21       1.0  0.83481  0.99534  0.30710  1.0000
  C   C22       1.0  0.73938  0.98868  0.29523  1.0000
  C   C23       1.0  0.76678  0.98167  0.21913  1.0000
  C   C24       1.0  0.81382  0.98525  0.22479  1.0000
  C   C25       1.0  0.99358  0.16781  0.30663  1.0000
  C   C26       1.0  0.98782  0.26328  0.29471  1.0000
  C   C27       1.0  0.98133  0.23599  0.21829  1.0000
  C   C28       1.0  0.98448  0.18892  0.22397  1.0000
  C   C29       1.0  0.16607  0.00879  0.31074  1.0000
  C   C30       1.0  0.18606  0.01526  0.22609  1.0000
  C   C31       1.0  0.23306  0.01546  0.21682  1.0000
  C   C32       1.0  0.26158  0.00907  0.29161  1.0000
  C   C33       1.0  0.00746  0.83660  0.31049  1.0000
  C   C34       1.0  0.01411  0.81657  0.22595  1.0000
  C   C35       1.0  0.00727  0.74109  0.29144  1.0000
  C   C36       1.0  0.01407  0.76956  0.21672  1.0000
  H   H1        1.0  0.01853  0.75635  0.15410  1.0000
  H   H2        1.0  0.01850  0.83609  0.17026  1.0000
  H   H3        1.0  0.91686  0.84858  0.31451  1.0000
  H   H4        1.0  0.85438  0.90607  0.31296  1.0000
  H   H5        1.0  0.97391  0.97331  0.31916  1.0000
  H   H6        1.0  0.02708  0.03112  0.32140  1.0000
  H   H7        1.0  0.09764  0.85467  0.31675  1.0000
  H   H8        1.0  0.15546  0.91740  0.31620  1.0000
  H   H9        1.0  0.16650  0.01923  0.17032  1.0000
  H   H10       1.0  0.24623  0.01974  0.15411  1.0000
  H   H11       1.0  0.14671  0.09811  0.31253  1.0000
  H   H12       1.0  0.08423  0.15566  0.30850  1.0000
  H   H13       1.0  0.84555  0.08684  0.30728  1.0000
  H   H14       1.0  0.90331  0.14958  0.30837  1.0000
  H   H15       1.0  0.97941  0.17009  0.16756  1.0000
  H   H16       1.0  0.97412  0.25014  0.15752  1.0000
  H   H17       1.0  0.83270  0.97989  0.16857  1.0000
  H   H18       1.0  0.75271  0.97383  0.15859  1.0000
  C   C37       1.0  0.98275  0.30950  0.28785  1.0000
  C   C38       1.0  0.30791  0.00718  0.27886  1.0000
  C   C39       1.0  0.00526  0.69476  0.27872  1.0000
  C   C40       1.0  0.69317  0.98344  0.28834  1.0000
  H   H19       1.0  0.96028  0.32150  0.24467  1.0000
  H   H20       1.0  0.31953  0.00428  0.21663  1.0000
  H   H21       1.0  0.00198  0.68316  0.21655  1.0000
  H   H22       1.0  0.68121  0.96086  0.24529  1.0000
  C   C41       1.0  0.00197  0.52555  0.33878  1.0000
  C   C42       1.0  0.97192  0.55095  0.28446  1.0000
  C   C43       1.0  0.97487  0.59842  0.28613  1.0000
  H   H23       1.0  0.95305  0.61685  0.24805  1.0000
  C   C44       1.0  0.00327  0.47761  0.33769  1.0000
  C   C45       1.0  0.00531  0.38191  0.33463  1.0000
  C   C46       1.0  0.01411  0.40671  0.25534  1.0000
  C   C47       1.0  0.01310  0.45420  0.25804  1.0000
  H   H24       1.0  0.01962  0.47182  0.20067  1.0000
  N   N5        1.0  0.02427  0.38366  0.17498  1.0000
  N   N6        1.0  0.93952  0.53176  0.23270  1.0000
  H   H25       1.0  0.91875  0.54997  0.19789  1.0000
  H   H26       1.0  0.93380  0.49967  0.23374  1.0000
  O   O1        1.0  0.99608  0.39228  0.11480  1.0000
  O   O2        1.0  0.06276  0.39351  0.14664  1.0000
  N   N7        1.0  0.00633  0.33709  0.33463  1.0000
  C   C48       1.0  0.47703  0.00287  0.33889  1.0000
  C   C49       1.0  0.45147  0.97298  0.28447  1.0000
  C   C50       1.0  0.40403  0.97608  0.28622  1.0000
  H   H27       1.0  0.38546  0.95440  0.24803  1.0000
  C   C51       1.0  0.52497  0.00401  0.33778  1.0000
  C   C52       1.0  0.62068  0.00592  0.33477  1.0000
  C   C53       1.0  0.59591  0.01474  0.25548  1.0000
  C   C54       1.0  0.54843  0.01380  0.25814  1.0000
  H   H28       1.0  0.53082  0.02037  0.20078  1.0000
  N   N8        1.0  0.61900  0.02488  0.17514  1.0000
  N   N9        1.0  0.47049  0.94054  0.23261  1.0000
  H   H29       1.0  0.45217  0.91993  0.19757  1.0000
  H   H30       1.0  0.50256  0.93475  0.23339  1.0000
  O   O3        1.0  0.61033  0.99670  0.11494  1.0000
  O   O4        1.0  0.60924  0.06338  0.14679  1.0000
  N   N10       1.0  0.66550  0.00703  0.33484  1.0000
  C   C55       1.0  0.80768  0.00236  0.38336  1.0000
  C   C56       1.0  0.76058  0.99923  0.37740  1.0000
  C   C57       1.0  0.00015  0.19486  0.38317  1.0000
  C   C58       1.0  0.99744  0.24199  0.37722  1.0000
  C   C59       1.0  0.24121  0.00294  0.37647  1.0000
  C   C60       1.0  0.19413  0.00285  0.38598  1.0000
  C   C61       1.0  0.00111  0.80859  0.38568  1.0000
  C   C62       1.0  0.00097  0.76150  0.37621  1.0000
  H   H31       1.0  0.99536  0.74229  0.43185  1.0000
  H   H32       1.0  0.99583  0.82233  0.44754  1.0000
  H   H33       1.0  0.18044  0.99765  0.44791  1.0000
  H   H34       1.0  0.26044  0.99763  0.43219  1.0000
  H   H35       1.0  0.00650  0.18037  0.44396  1.0000
  H   H36       1.0  0.00164  0.26054  0.43423  1.0000
  H   H37       1.0  0.74197  0.00385  0.43421  1.0000
  H   H38       1.0  0.82209  0.00948  0.44389  1.0000
  C   C63       1.0  0.00615  0.62133  0.34070  1.0000
  C   C64       1.0  0.03454  0.59612  0.39739  1.0000
  C   C65       1.0  0.03243  0.54866  0.39506  1.0000
  C   C66       1.0  0.99609  0.45244  0.41643  1.0000
  C   C67       1.0  0.99719  0.40489  0.41651  1.0000
  H   H39       1.0  0.98935  0.46912  0.47483  1.0000
  H   H40       1.0  0.05416  0.53083  0.43458  1.0000
  N   N11       1.0  0.98992  0.38279  0.49491  1.0000
  H   H41       1.0  0.98442  0.39900  0.55040  1.0000
  H   H42       1.0  0.99028  0.35021  0.49845  1.0000
  N   N12       1.0  0.06498  0.61905  0.45407  1.0000
  O   O5        1.0  0.05751  0.61021  0.53490  1.0000
  O   O6        1.0  0.10498  0.60893  0.43644  1.0000
  N   N13       1.0  0.00804  0.66614  0.34307  1.0000
  C   C68       1.0  0.38128  0.00741  0.34092  1.0000
  C   C69       1.0  0.40663  0.03566  0.39770  1.0000
  C   C70       1.0  0.45409  0.03338  0.39531  1.0000
  C   C71       1.0  0.55012  0.99675  0.41652  1.0000
  C   C72       1.0  0.59767  0.99780  0.41663  1.0000
  H   H43       1.0  0.53341  0.99005  0.47493  1.0000
  H   H44       1.0  0.47202  0.05500  0.43488  1.0000
  N   N14       1.0  0.61974  0.99051  0.49505  1.0000
  H   H45       1.0  0.60351  0.98501  0.55052  1.0000
  H   H46       1.0  0.65232  0.99082  0.49860  1.0000
  N   N15       1.0  0.38385  0.06612  0.45451  1.0000
  O   O7        1.0  0.39267  0.05853  0.53531  1.0000
  O   O8        1.0  0.39415  0.10610  0.43703  1.0000
  N   N16       1.0  0.33650  0.00941  0.34334  1.0000
