data_image0
_chemical_formula_structural       C3NC3NC5NC5NC20H18N4CNC2OH3CHCNC2OH3CHC8H8NC2HCHNC2HCH
_chemical_formula_sum              "C58 N12 H38 O2"
_cell_length_a       25.7027
_cell_length_b       25.7005
_cell_length_c       14.7293
_cell_angle_alpha    90
_cell_angle_beta     90
_cell_angle_gamma    89.97

_space_group_name_H-M_alt    "P 1"
_space_group_IT_number       1

loop_
  _space_group_symop_operation_xyz
  'x, y, z'

loop_
  _atom_site_type_symbol
  _atom_site_label
  _atom_site_symmetry_multiplicity
  _atom_site_fract_x
  _atom_site_fract_y
  _atom_site_fract_z
  _atom_site_occupancy
  C   C1        1.0  0.91207  0.14345  0.33770  1.0000
  C   C2        1.0  0.87401  0.10548  0.33792  1.0000
  C   C3        1.0  0.89824  0.05679  0.33655  1.0000
  N   N1        1.0  0.95008  0.06730  0.33581  1.0000
  C   C4        1.0  0.96071  0.11911  0.33668  1.0000
  C   C5        1.0  0.00948  0.14565  0.33620  1.0000
  C   C6        1.0  0.05871  0.12018  0.33416  1.0000
  N   N2        1.0  0.06898  0.06845  0.33337  1.0000
  C   C7        1.0  0.12070  0.05814  0.33149  1.0000
  C   C8        1.0  0.14519  0.10666  0.33059  1.0000
  C   C9        1.0  0.10719  0.14470  0.33278  1.0000
  C   C10       1.0  0.14612  0.00885  0.33005  1.0000
  C   C11       1.0  0.11934  0.96015  0.32982  1.0000
  N   N3        1.0  0.06748  0.94960  0.33034  1.0000
  C   C12       1.0  0.05679  0.89777  0.33006  1.0000
  C   C13       1.0  0.10544  0.87346  0.32895  1.0000
  C   C14       1.0  0.14350  0.91141  0.32953  1.0000
  C   C15       1.0  0.00802  0.87113  0.33025  1.0000
  C   C16       1.0  0.95879  0.89665  0.33181  1.0000
  N   N4        1.0  0.94862  0.94840  0.33291  1.0000
  C   C17       1.0  0.89692  0.95878  0.33515  1.0000
  C   C18       1.0  0.87230  0.91035  0.33536  1.0000
  C   C19       1.0  0.91024  0.87225  0.33378  1.0000
  C   C20       1.0  0.87159  0.00808  0.33670  1.0000
  C   C21       1.0  0.81570  0.00856  0.33818  1.0000
  C   C22       1.0  0.70396  0.00903  0.34076  1.0000
  C   C23       1.0  0.73193  0.01546  0.25859  1.0000
  C   C24       1.0  0.78683  0.01509  0.25726  1.0000
  C   C25       1.0  0.00830  0.81515  0.32950  1.0000
  C   C26       1.0  0.00773  0.70325  0.32856  1.0000
  C   C27       1.0  0.99635  0.73207  0.24926  1.0000
  C   C28       1.0  0.99670  0.78700  0.24947  1.0000
  C   C29       1.0  0.20211  0.00837  0.32940  1.0000
  C   C30       1.0  0.23023  0.99710  0.24920  1.0000
  C   C31       1.0  0.28516  0.99666  0.24893  1.0000
  C   C32       1.0  0.31403  0.00772  0.32832  1.0000
  C   C33       1.0  0.00909  0.20155  0.33756  1.0000
  C   C34       1.0  0.01481  0.23049  0.25653  1.0000
  C   C35       1.0  0.00872  0.31331  0.34023  1.0000
  C   C36       1.0  0.01478  0.28539  0.25791  1.0000
  H   H1        1.0  0.01990  0.30480  0.19802  1.0000
  H   H2        1.0  0.01938  0.21168  0.19579  1.0000
  H   H3        1.0  0.90469  0.18253  0.33831  1.0000
  H   H4        1.0  0.83496  0.11295  0.33898  1.0000
  H   H5        1.0  0.97649  0.04082  0.33516  1.0000
  H   H6        1.0  0.04107  0.97608  0.33049  1.0000
  H   H7        1.0  0.11442  0.18379  0.33273  1.0000
  H   H8        1.0  0.18425  0.11392  0.32853  1.0000
  H   H9        1.0  0.21079  0.98904  0.19021  1.0000
  H   H10       1.0  0.30412  0.98824  0.18959  1.0000
  H   H11       1.0  0.18253  0.90385  0.32955  1.0000
  H   H12       1.0  0.11288  0.83440  0.32818  1.0000
  H   H13       1.0  0.83320  0.90322  0.33704  1.0000
  H   H14       1.0  0.90290  0.83319  0.33446  1.0000
  H   H15       1.0  0.98823  0.80643  0.19064  1.0000
  H   H16       1.0  0.98763  0.71309  0.19009  1.0000
  H   H17       1.0  0.80569  0.01981  0.19660  1.0000
  H   H18       1.0  0.71257  0.02105  0.19878  1.0000
  N   N5        1.0  0.00655  0.65105  0.32250  1.0000
  N   N6        1.0  0.36623  0.00660  0.32219  1.0000
  N   N7        1.0  0.00936  0.36550  0.34657  1.0000
  N   N8        1.0  0.65178  0.00976  0.34698  1.0000
  C   C37       1.0  0.00346  0.45498  0.30763  1.0000
  N   N9        1.0  0.99792  0.54576  0.27092  1.0000
  C   C38       1.0  0.99368  0.49526  0.24318  1.0000
  C   C39       1.0  0.97921  0.48625  0.14681  1.0000
  O   O1        1.0  0.01914  0.45948  0.09757  1.0000
  H   H19       1.0  0.97050  0.52295  0.11225  1.0000
  H   H20       1.0  0.94387  0.46277  0.14456  1.0000
  H   H21       1.0  0.04971  0.48247  0.09357  1.0000
  C   C40       1.0  0.00043  0.40177  0.28797  1.0000
  H   H22       1.0  0.99024  0.39114  0.22577  1.0000
  C   C41       1.0  0.56236  0.00391  0.30768  1.0000
  N   N10       1.0  0.47163  0.99801  0.27081  1.0000
  C   C42       1.0  0.52217  0.99374  0.24327  1.0000
  C   C43       1.0  0.53131  0.97879  0.14716  1.0000
  O   O2        1.0  0.55800  0.01852  0.09735  1.0000
  H   H23       1.0  0.49467  0.96983  0.11263  1.0000
  H   H24       1.0  0.55490  0.94348  0.14554  1.0000
  H   H25       1.0  0.53493  0.04902  0.09281  1.0000
  C   C44       1.0  0.61559  0.00089  0.28821  1.0000
  H   H26       1.0  0.62631  0.99067  0.22606  1.0000
  C   C45       1.0  0.78795  0.00269  0.42046  1.0000
  C   C46       1.0  0.73303  0.00318  0.42159  1.0000
  C   C47       1.0  0.01961  0.78649  0.40908  1.0000
  C   C48       1.0  0.01948  0.73157  0.40857  1.0000
  C   C49       1.0  0.28573  0.01911  0.40851  1.0000
  C   C50       1.0  0.23082  0.01931  0.40908  1.0000
  C   C51       1.0  0.00351  0.22925  0.41996  1.0000
  C   C52       1.0  0.00357  0.28419  0.42114  1.0000
  H   H27       1.0  0.99959  0.30294  0.48205  1.0000
  H   H28       1.0  0.99957  0.20952  0.47993  1.0000
  H   H29       1.0  0.21179  0.02762  0.46839  1.0000
  H   H30       1.0  0.30478  0.02731  0.46765  1.0000
  H   H31       1.0  0.02802  0.80556  0.46830  1.0000
  H   H32       1.0  0.02792  0.71254  0.46763  1.0000
  H   H33       1.0  0.71422  0.99886  0.48239  1.0000
  H   H34       1.0  0.80764  0.99810  0.48033  1.0000
  N   N11       1.0  0.01653  0.47055  0.39309  1.0000
  C   C53       1.0  0.02061  0.52106  0.41957  1.0000
  C   C54       1.0  0.01095  0.56124  0.35624  1.0000
  H   H35       1.0  0.03066  0.52909  0.48524  1.0000
  C   C55       1.0  0.01459  0.61374  0.37945  1.0000
  H   H36       1.0  0.02389  0.62262  0.44304  1.0000
  N   N12       1.0  0.54668  0.01737  0.39290  1.0000
  C   C56       1.0  0.49614  0.02149  0.41918  1.0000
  C   C57       1.0  0.45604  0.01144  0.35590  1.0000
  H   H37       1.0  0.48803  0.03184  0.48468  1.0000
  C   C58       1.0  0.40352  0.01508  0.37898  1.0000
  H   H38       1.0  0.39460  0.02479  0.44236  1.0000
