data_image0
_chemical_formula_structural       COCOH2C2HC2HC4OH4C6O2H4C6O2H4N12C3HOC2OC3HOC3OHC3HOC3OHC4HCH3C4HCH3C4HCH3C4HCH3C4HCH3C4HCH3C4OH4C6O2H4C6O2H4N12C3HOC2OC3HOC3OHC3HOC3OHC4HCH3C4HCH3C4HCH3C4HCH3C4HCH3C4HCH3C6O2H3C6O2H4C6O2H4N12C3HOC3OHC3HOC3OHC3HOC3OHC4HCH3C4HCH3C4HCH3C4HCH3C4HCH3C4HCH3C6O2H3C6O2H4C6O2H4N12C3HOC3OHC3HOC3OHC3HOC3OHC4HCH3C4HCH3C4HCH3C4HCH3C4HCH3C4HCH3
_chemical_formula_sum              "C264 O48 H168 N48"
_cell_length_a       46.1934
_cell_length_b       46.1934
_cell_length_c       14.9615
_cell_angle_alpha    90
_cell_angle_beta     90
_cell_angle_gamma    120

_space_group_name_H-M_alt    "P 1"
_space_group_IT_number       1

loop_
  _space_group_symop_operation_xyz
  'x, y, z'

loop_
  _atom_site_type_symbol
  _atom_site_label
  _atom_site_symmetry_multiplicity
  _atom_site_fract_x
  _atom_site_fract_y
  _atom_site_fract_z
  _atom_site_occupancy
  C   C1        1.0  0.01993  0.26115  0.35299  1.0000
  O   O1        1.0  0.02371  0.31528  0.31776  1.0000
  C   C2        1.0  0.01993  0.76115  0.35299  1.0000
  O   O2        1.0  0.02371  0.81528  0.31776  1.0000
  H   H1        1.0  0.01779  0.31153  0.25394  1.0000
  H   H2        1.0  0.01779  0.81153  0.25394  1.0000
  C   C3        1.0  0.03833  0.29675  0.33783  1.0000
  C   C4        1.0  0.04024  0.24608  0.36408  1.0000
  H   H3        1.0  0.03011  0.22209  0.38550  1.0000
  C   C5        1.0  0.03833  0.79675  0.33783  1.0000
  C   C6        1.0  0.04024  0.74608  0.36408  1.0000
  H   H4        1.0  0.03011  0.72209  0.38550  1.0000
  C   C7        1.0  0.48374  0.24117  0.35296  1.0000
  C   C8        1.0  0.42995  0.18739  0.33001  1.0000
  C   C9        1.0  0.46528  0.20553  0.33842  1.0000
  C   C10       1.0  0.07367  0.31495  0.32984  1.0000
  O   O3        1.0  0.47988  0.18690  0.31947  1.0000
  H   H5        1.0  0.98584  0.19039  0.25564  1.0000
  H   H6        1.0  0.51779  0.31153  0.25394  1.0000
  H   H7        1.0  0.37317  0.18592  0.25591  1.0000
  H   H8        1.0  0.13075  0.31653  0.25771  1.0000
  C   C11       1.0  0.26207  0.24324  0.35226  1.0000
  C   C12       1.0  0.31582  0.24334  0.32814  1.0000
  C   C13       1.0  0.29764  0.26048  0.33659  1.0000
  C   C14       1.0  0.24205  0.25939  0.35292  1.0000
  C   C15       1.0  0.20641  0.24215  0.33829  1.0000
  C   C16       1.0  0.18814  0.25925  0.33159  1.0000
  O   O4        1.0  0.31612  0.29368  0.31712  1.0000
  O   O5        1.0  0.18791  0.20898  0.31839  1.0000
  H   H9        1.0  0.31235  0.29599  0.25341  1.0000
  H   H10       1.0  0.19150  0.20681  0.25446  1.0000
  H   H11       1.0  0.31735  0.18795  0.25494  1.0000
  H   H12       1.0  0.18626  0.31472  0.26054  1.0000
  C   C17       1.0  0.26008  0.01921  0.35315  1.0000
  C   C18       1.0  0.26004  0.07307  0.33274  1.0000
  C   C19       1.0  0.24293  0.03767  0.33830  1.0000
  C   C20       1.0  0.24383  0.48304  0.35248  1.0000
  C   C21       1.0  0.26098  0.46459  0.33751  1.0000
  C   C22       1.0  0.24377  0.42925  0.32941  1.0000
  O   O6        1.0  0.20987  0.02308  0.31710  1.0000
  O   O7        1.0  0.29415  0.47919  0.31773  1.0000
  H   H13       1.0  0.20804  0.51744  0.25312  1.0000
  H   H14       1.0  0.29641  0.98523  0.25398  1.0000
  H   H15       1.0  0.31572  0.13067  0.26375  1.0000
  H   H16       1.0  0.18829  0.37222  0.25704  1.0000
  N   N1        1.0  0.11116  0.25062  0.26507  1.0000
  N   N2        1.0  0.13863  0.24935  0.25974  1.0000
  N   N3        1.0  0.25229  0.36067  0.26488  1.0000
  N   N4        1.0  0.25345  0.38934  0.25858  1.0000
  N   N5        1.0  0.14211  0.39192  0.26416  1.0000
  N   N6        1.0  0.11340  0.36444  0.25844  1.0000
  N   N7        1.0  0.39296  0.25194  0.26271  1.0000
  N   N8        1.0  0.36552  0.25322  0.25650  1.0000
  N   N9        1.0  0.25161  0.14127  0.26492  1.0000
  N   N10       1.0  0.25025  0.11248  0.26009  1.0000
  N   N11       1.0  0.36132  0.11004  0.26607  1.0000
  N   N12       1.0  0.38996  0.13758  0.25941  1.0000
  C   C23       1.0  0.46347  0.25631  0.36345  1.0000
  C   C24       1.0  0.42905  0.23996  0.34310  1.0000
  C   C25       1.0  0.41252  0.20526  0.32588  1.0000
  H   H17       1.0  0.47360  0.28031  0.38478  1.0000
  O   O8        1.0  0.37842  0.18818  0.32013  1.0000
  C   C26       1.0  0.09119  0.29715  0.32683  1.0000
  C   C27       1.0  0.07471  0.26247  0.34420  1.0000
  O   O9        1.0  0.12532  0.31432  0.32180  1.0000
  C   C28       1.0  0.24704  0.20787  0.36339  1.0000
  C   C29       1.0  0.26339  0.18981  0.34285  1.0000
  C   C30       1.0  0.29802  0.20802  0.32476  1.0000
  H   H18       1.0  0.22312  0.19404  0.38532  1.0000
  O   O10       1.0  0.31523  0.19112  0.31913  1.0000
  C   C31       1.0  0.20588  0.29457  0.32881  1.0000
  C   C32       1.0  0.24063  0.31280  0.34509  1.0000
  C   C33       1.0  0.25713  0.29477  0.36408  1.0000
  O   O11       1.0  0.18869  0.31152  0.32452  1.0000
  H   H19       1.0  0.28117  0.30864  0.38509  1.0000
  C   C34       1.0  0.29546  0.03944  0.36469  1.0000
  C   C35       1.0  0.31353  0.07404  0.34669  1.0000
  C   C36       1.0  0.29537  0.09068  0.33103  1.0000
  H   H20       1.0  0.30930  0.02920  0.38540  1.0000
  O   O12       1.0  0.31235  0.12483  0.32758  1.0000
  C   C37       1.0  0.20845  0.41179  0.32611  1.0000
  C   C38       1.0  0.19031  0.42835  0.34322  1.0000
  C   C39       1.0  0.20843  0.46280  0.36329  1.0000
  O   O13       1.0  0.19146  0.37767  0.32113  1.0000
  H   H21       1.0  0.19462  0.47298  0.38477  1.0000
  C   C40       1.0  0.15277  0.24263  0.33032  1.0000
  C   C41       1.0  0.13550  0.23627  0.41262  1.0000
  C   C42       1.0  0.10581  0.23815  0.41998  1.0000
  C   C43       1.0  0.09350  0.24586  0.34168  1.0000
  H   H22       1.0  0.14706  0.23494  0.46963  1.0000
  C   C44       1.0  0.09105  0.23641  0.50950  1.0000
  H   H23       1.0  0.10385  0.23100  0.56265  1.0000
  H   H24       1.0  0.06491  0.21663  0.50989  1.0000
  H   H25       1.0  0.09247  0.26017  0.52516  1.0000
  C   C45       1.0  0.26032  0.41040  0.32870  1.0000
  C   C46       1.0  0.26686  0.39997  0.41147  1.0000
  C   C47       1.0  0.26505  0.36846  0.41971  1.0000
  C   C48       1.0  0.25733  0.34818  0.34195  1.0000
  H   H26       1.0  0.26835  0.41317  0.46798  1.0000
  C   C49       1.0  0.26692  0.35574  0.50955  1.0000
  H   H27       1.0  0.27243  0.37415  0.56222  1.0000
  H   H28       1.0  0.28669  0.34936  0.51009  1.0000
  H   H29       1.0  0.24318  0.33347  0.52573  1.0000
  C   C50       1.0  0.09248  0.35034  0.32888  1.0000
  C   C51       1.0  0.10322  0.36752  0.41126  1.0000
  C   C52       1.0  0.13474  0.39726  0.41882  1.0000
  C   C53       1.0  0.15491  0.40967  0.34079  1.0000
  H   H30       1.0  0.09014  0.35601  0.46810  1.0000
  C   C54       1.0  0.14764  0.41204  0.50839  1.0000
  H   H31       1.0  0.12937  0.39920  0.56141  1.0000
  H   H32       1.0  0.15394  0.43816  0.50870  1.0000
  H   H33       1.0  0.16999  0.41068  0.52431  1.0000
  C   C55       1.0  0.35121  0.25994  0.32660  1.0000
  C   C56       1.0  0.36818  0.26632  0.40943  1.0000
  C   C57       1.0  0.39781  0.26436  0.41766  1.0000
  C   C58       1.0  0.41036  0.25665  0.33979  1.0000
  H   H34       1.0  0.35647  0.26768  0.46610  1.0000
  C   C59       1.0  0.41228  0.26603  0.50758  1.0000
  H   H35       1.0  0.39935  0.27147  0.56029  1.0000
  H   H36       1.0  0.43844  0.28576  0.50846  1.0000
  H   H37       1.0  0.41074  0.24224  0.52348  1.0000
  C   C60       1.0  0.24339  0.09179  0.33111  1.0000
  C   C61       1.0  0.23712  0.10291  0.41312  1.0000
  C   C62       1.0  0.23902  0.13450  0.41971  1.0000
  C   C63       1.0  0.24685  0.15441  0.34112  1.0000
  H   H38       1.0  0.23566  0.09004  0.47029  1.0000
  C   C64       1.0  0.23725  0.14771  0.50895  1.0000
  H   H39       1.0  0.23190  0.12963  0.56243  1.0000
  H   H40       1.0  0.21741  0.15399  0.50902  1.0000
  H   H41       1.0  0.26098  0.17012  0.52437  1.0000
  C   C65       1.0  0.41106  0.15199  0.32933  1.0000
  C   C66       1.0  0.40065  0.13524  0.41244  1.0000
  C   C67       1.0  0.36919  0.10550  0.42106  1.0000
  C   C68       1.0  0.34892  0.09267  0.34338  1.0000
  H   H42       1.0  0.41389  0.14701  0.46887  1.0000
  C   C69       1.0  0.35651  0.09102  0.51100  1.0000
  H   H43       1.0  0.37494  0.10400  0.56357  1.0000
  H   H44       1.0  0.35015  0.06487  0.51179  1.0000
  H   H45       1.0  0.33423  0.09248  0.52710  1.0000
  C   C70       1.0  0.48374  0.74117  0.35296  1.0000
  C   C71       1.0  0.42995  0.68739  0.33001  1.0000
  C   C72       1.0  0.46528  0.70553  0.33842  1.0000
  C   C73       1.0  0.07367  0.81495  0.32984  1.0000
  O   O14       1.0  0.47988  0.68690  0.31947  1.0000
  H   H46       1.0  0.98584  0.69039  0.25564  1.0000
  H   H47       1.0  0.51779  0.81153  0.25394  1.0000
  H   H48       1.0  0.37317  0.68592  0.25591  1.0000
  H   H49       1.0  0.13075  0.81653  0.25771  1.0000
  C   C74       1.0  0.26207  0.74325  0.35226  1.0000
  C   C75       1.0  0.31582  0.74334  0.32814  1.0000
  C   C76       1.0  0.29763  0.76047  0.33659  1.0000
  C   C77       1.0  0.24205  0.75939  0.35292  1.0000
  C   C78       1.0  0.20642  0.74215  0.33829  1.0000
  C   C79       1.0  0.18814  0.75925  0.33159  1.0000
  O   O15       1.0  0.31612  0.79368  0.31712  1.0000
  O   O16       1.0  0.18791  0.70898  0.31839  1.0000
  H   H50       1.0  0.31235  0.79599  0.25341  1.0000
  H   H51       1.0  0.19150  0.70681  0.25446  1.0000
  H   H52       1.0  0.31735  0.68795  0.25494  1.0000
  H   H53       1.0  0.18626  0.81471  0.26054  1.0000
  C   C80       1.0  0.26008  0.51921  0.35315  1.0000
  C   C81       1.0  0.26004  0.57307  0.33274  1.0000
  C   C82       1.0  0.24293  0.53767  0.33830  1.0000
  C   C83       1.0  0.24383  0.98304  0.35248  1.0000
  C   C84       1.0  0.26098  0.96459  0.33751  1.0000
  C   C85       1.0  0.24377  0.92925  0.32941  1.0000
  O   O17       1.0  0.20987  0.52308  0.31710  1.0000
  O   O18       1.0  0.29415  0.97919  0.31773  1.0000
  H   H54       1.0  0.20804  0.01744  0.25312  1.0000
  H   H55       1.0  0.29641  0.48523  0.25398  1.0000
  H   H56       1.0  0.31572  0.63066  0.26375  1.0000
  H   H57       1.0  0.18829  0.87222  0.25704  1.0000
  N   N13       1.0  0.11116  0.75062  0.26507  1.0000
  N   N14       1.0  0.13863  0.74935  0.25974  1.0000
  N   N15       1.0  0.25229  0.86066  0.26488  1.0000
  N   N16       1.0  0.25345  0.88934  0.25858  1.0000
  N   N17       1.0  0.14211  0.89193  0.26416  1.0000
  N   N18       1.0  0.11340  0.86443  0.25844  1.0000
  N   N19       1.0  0.39296  0.75194  0.26271  1.0000
  N   N20       1.0  0.36551  0.75322  0.25650  1.0000
  N   N21       1.0  0.25161  0.64127  0.26492  1.0000
  N   N22       1.0  0.25025  0.61248  0.26009  1.0000
  N   N23       1.0  0.36132  0.61004  0.26607  1.0000
  N   N24       1.0  0.38996  0.63758  0.25941  1.0000
  C   C86       1.0  0.46347  0.75631  0.36345  1.0000
  C   C87       1.0  0.42905  0.73996  0.34310  1.0000
  C   C88       1.0  0.41252  0.70526  0.32588  1.0000
  H   H58       1.0  0.47360  0.78031  0.38478  1.0000
  O   O19       1.0  0.37841  0.68818  0.32013  1.0000
  C   C89       1.0  0.09119  0.79715  0.32683  1.0000
  C   C90       1.0  0.07471  0.76247  0.34420  1.0000
  O   O20       1.0  0.12532  0.81432  0.32180  1.0000
  C   C91       1.0  0.24704  0.70787  0.36339  1.0000
  C   C92       1.0  0.26339  0.68980  0.34285  1.0000
  C   C93       1.0  0.29802  0.70803  0.32476  1.0000
  H   H59       1.0  0.22312  0.69404  0.38532  1.0000
  O   O21       1.0  0.31523  0.69112  0.31913  1.0000
  C   C94       1.0  0.20588  0.79457  0.32881  1.0000
  C   C95       1.0  0.24063  0.81280  0.34509  1.0000
  C   C96       1.0  0.25713  0.79477  0.36408  1.0000
  O   O22       1.0  0.18869  0.81152  0.32452  1.0000
  H   H60       1.0  0.28118  0.80864  0.38509  1.0000
  C   C97       1.0  0.29546  0.53944  0.36469  1.0000
  C   C98       1.0  0.31353  0.57405  0.34669  1.0000
  C   C99       1.0  0.29537  0.59068  0.33103  1.0000
  H   H61       1.0  0.30930  0.52920  0.38540  1.0000
  O   O23       1.0  0.31235  0.62483  0.32758  1.0000
  C   C100      1.0  0.20845  0.91179  0.32611  1.0000
  C   C101      1.0  0.19031  0.92835  0.34322  1.0000
  C   C102      1.0  0.20843  0.96280  0.36329  1.0000
  O   O24       1.0  0.19146  0.87767  0.32113  1.0000
  H   H62       1.0  0.19462  0.97298  0.38477  1.0000
  C   C103      1.0  0.15277  0.74263  0.33032  1.0000
  C   C104      1.0  0.13550  0.73627  0.41262  1.0000
  C   C105      1.0  0.10581  0.73815  0.41998  1.0000
  C   C106      1.0  0.09349  0.74586  0.34168  1.0000
  H   H63       1.0  0.14706  0.73494  0.46963  1.0000
  C   C107      1.0  0.09104  0.73641  0.50950  1.0000
  H   H64       1.0  0.10384  0.73100  0.56265  1.0000
  H   H65       1.0  0.06490  0.71663  0.50989  1.0000
  H   H66       1.0  0.09247  0.76017  0.52516  1.0000
  C   C108      1.0  0.26032  0.91040  0.32870  1.0000
  C   C109      1.0  0.26686  0.89997  0.41147  1.0000
  C   C110      1.0  0.26505  0.86846  0.41971  1.0000
  C   C111      1.0  0.25733  0.84819  0.34195  1.0000
  H   H67       1.0  0.26835  0.91318  0.46798  1.0000
  C   C112      1.0  0.26692  0.85574  0.50955  1.0000
  H   H68       1.0  0.27243  0.87415  0.56222  1.0000
  H   H69       1.0  0.28669  0.84936  0.51009  1.0000
  H   H70       1.0  0.24318  0.83347  0.52573  1.0000
  C   C113      1.0  0.09247  0.85034  0.32888  1.0000
  C   C114      1.0  0.10322  0.86752  0.41126  1.0000
  C   C115      1.0  0.13474  0.89726  0.41882  1.0000
  C   C116      1.0  0.15492  0.90967  0.34079  1.0000
  H   H71       1.0  0.09014  0.85601  0.46810  1.0000
  C   C117      1.0  0.14764  0.91204  0.50839  1.0000
  H   H72       1.0  0.12937  0.89920  0.56141  1.0000
  H   H73       1.0  0.15394  0.93816  0.50870  1.0000
  H   H74       1.0  0.16999  0.91068  0.52431  1.0000
  C   C118      1.0  0.35121  0.75993  0.32660  1.0000
  C   C119      1.0  0.36818  0.76632  0.40943  1.0000
  C   C120      1.0  0.39781  0.76436  0.41766  1.0000
  C   C121      1.0  0.41036  0.75665  0.33979  1.0000
  H   H75       1.0  0.35647  0.76768  0.46610  1.0000
  C   C122      1.0  0.41228  0.76603  0.50758  1.0000
  H   H76       1.0  0.39935  0.77147  0.56029  1.0000
  H   H77       1.0  0.43844  0.78577  0.50846  1.0000
  H   H78       1.0  0.41074  0.74224  0.52348  1.0000
  C   C123      1.0  0.24339  0.59179  0.33111  1.0000
  C   C124      1.0  0.23712  0.60291  0.41312  1.0000
  C   C125      1.0  0.23902  0.63450  0.41971  1.0000
  C   C126      1.0  0.24685  0.65441  0.34112  1.0000
  H   H79       1.0  0.23566  0.59004  0.47029  1.0000
  C   C127      1.0  0.23725  0.64771  0.50895  1.0000
  H   H80       1.0  0.23190  0.62963  0.56243  1.0000
  H   H81       1.0  0.21741  0.65399  0.50902  1.0000
  H   H82       1.0  0.26098  0.67012  0.52437  1.0000
  C   C128      1.0  0.41106  0.65199  0.32933  1.0000
  C   C129      1.0  0.40065  0.63524  0.41244  1.0000
  C   C130      1.0  0.36919  0.60550  0.42106  1.0000
  C   C131      1.0  0.34892  0.59267  0.34338  1.0000
  H   H83       1.0  0.41389  0.64701  0.46887  1.0000
  C   C132      1.0  0.35651  0.59102  0.51100  1.0000
  H   H84       1.0  0.37494  0.60400  0.56357  1.0000
  H   H85       1.0  0.35015  0.56487  0.51179  1.0000
  H   H86       1.0  0.33423  0.59248  0.52710  1.0000
  C   C133      1.0  0.98374  0.24117  0.35296  1.0000
  C   C134      1.0  0.92995  0.18739  0.33001  1.0000
  C   C135      1.0  0.96528  0.20553  0.33842  1.0000
  C   C136      1.0  0.51993  0.26115  0.35299  1.0000
  C   C137      1.0  0.53834  0.29675  0.33783  1.0000
  C   C138      1.0  0.57367  0.31495  0.32984  1.0000
  O   O25       1.0  0.97988  0.18690  0.31947  1.0000
  O   O26       1.0  0.52371  0.31528  0.31776  1.0000
  H   H87       1.0  0.48584  0.19039  0.25564  1.0000
  H   H88       1.0  0.87317  0.18592  0.25591  1.0000
  H   H89       1.0  0.63075  0.31653  0.25771  1.0000
  C   C139      1.0  0.76207  0.24324  0.35226  1.0000
  C   C140      1.0  0.81583  0.24334  0.32814  1.0000
  C   C141      1.0  0.79764  0.26048  0.33659  1.0000
  C   C142      1.0  0.74205  0.25939  0.35292  1.0000
  C   C143      1.0  0.70641  0.24215  0.33829  1.0000
  C   C144      1.0  0.68814  0.25925  0.33159  1.0000
  O   O27       1.0  0.81612  0.29368  0.31712  1.0000
  O   O28       1.0  0.68792  0.20898  0.31839  1.0000
  H   H90       1.0  0.81236  0.29599  0.25341  1.0000
  H   H91       1.0  0.69150  0.20681  0.25446  1.0000
  H   H92       1.0  0.81735  0.18795  0.25494  1.0000
  H   H93       1.0  0.68626  0.31472  0.26054  1.0000
  C   C145      1.0  0.76008  0.01921  0.35315  1.0000
  C   C146      1.0  0.76004  0.07307  0.33274  1.0000
  C   C147      1.0  0.74293  0.03767  0.33830  1.0000
  C   C148      1.0  0.74383  0.48304  0.35248  1.0000
  C   C149      1.0  0.76098  0.46459  0.33751  1.0000
  C   C150      1.0  0.74377  0.42925  0.32941  1.0000
  O   O29       1.0  0.70988  0.02308  0.31710  1.0000
  O   O30       1.0  0.79415  0.47919  0.31773  1.0000
  H   H94       1.0  0.70804  0.51744  0.25312  1.0000
  H   H95       1.0  0.79641  0.98523  0.25398  1.0000
  H   H96       1.0  0.81572  0.13067  0.26375  1.0000
  H   H97       1.0  0.68829  0.37222  0.25704  1.0000
  N   N25       1.0  0.61116  0.25062  0.26507  1.0000
  N   N26       1.0  0.63863  0.24935  0.25974  1.0000
  N   N27       1.0  0.75229  0.36067  0.26488  1.0000
  N   N28       1.0  0.75346  0.38934  0.25858  1.0000
  N   N29       1.0  0.64211  0.39192  0.26416  1.0000
  N   N30       1.0  0.61340  0.36444  0.25844  1.0000
  N   N31       1.0  0.89296  0.25194  0.26271  1.0000
  N   N32       1.0  0.86552  0.25322  0.25650  1.0000
  N   N33       1.0  0.75162  0.14127  0.26492  1.0000
  N   N34       1.0  0.75025  0.11248  0.26009  1.0000
  N   N35       1.0  0.86132  0.11004  0.26607  1.0000
  N   N36       1.0  0.88996  0.13758  0.25941  1.0000
  C   C151      1.0  0.96347  0.25631  0.36345  1.0000
  C   C152      1.0  0.92905  0.23996  0.34310  1.0000
  C   C153      1.0  0.91251  0.20526  0.32588  1.0000
  H   H98       1.0  0.97360  0.28031  0.38478  1.0000
  O   O31       1.0  0.87841  0.18818  0.32013  1.0000
  C   C154      1.0  0.59120  0.29715  0.32683  1.0000
  C   C155      1.0  0.57471  0.26247  0.34420  1.0000
  C   C156      1.0  0.54024  0.24608  0.36408  1.0000
  O   O32       1.0  0.62532  0.31432  0.32180  1.0000
  H   H99       1.0  0.53011  0.22209  0.38550  1.0000
  C   C157      1.0  0.74704  0.20787  0.36339  1.0000
  C   C158      1.0  0.76339  0.18981  0.34285  1.0000
  C   C159      1.0  0.79802  0.20802  0.32476  1.0000
  H   H100      1.0  0.72312  0.19404  0.38532  1.0000
  O   O33       1.0  0.81523  0.19112  0.31913  1.0000
  C   C160      1.0  0.70588  0.29457  0.32881  1.0000
  C   C161      1.0  0.74063  0.31280  0.34509  1.0000
  C   C162      1.0  0.75713  0.29477  0.36408  1.0000
  O   O34       1.0  0.68869  0.31152  0.32452  1.0000
  H   H101      1.0  0.78117  0.30864  0.38509  1.0000
  C   C163      1.0  0.79546  0.03944  0.36469  1.0000
  C   C164      1.0  0.81353  0.07404  0.34669  1.0000
  C   C165      1.0  0.79537  0.09068  0.33103  1.0000
  H   H102      1.0  0.80930  0.02920  0.38540  1.0000
  O   O35       1.0  0.81235  0.12483  0.32758  1.0000
  C   C166      1.0  0.70845  0.41179  0.32611  1.0000
  C   C167      1.0  0.69031  0.42835  0.34322  1.0000
  C   C168      1.0  0.70843  0.46280  0.36329  1.0000
  O   O36       1.0  0.69146  0.37767  0.32113  1.0000
  H   H103      1.0  0.69462  0.47298  0.38477  1.0000
  C   C169      1.0  0.65277  0.24263  0.33032  1.0000
  C   C170      1.0  0.63550  0.23627  0.41262  1.0000
  C   C171      1.0  0.60581  0.23815  0.41998  1.0000
  C   C172      1.0  0.59349  0.24586  0.34168  1.0000
  H   H104      1.0  0.64706  0.23494  0.46963  1.0000
  C   C173      1.0  0.59105  0.23641  0.50950  1.0000
  H   H105      1.0  0.60385  0.23100  0.56265  1.0000
  H   H106      1.0  0.56490  0.21663  0.50989  1.0000
  H   H107      1.0  0.59247  0.26017  0.52516  1.0000
  C   C174      1.0  0.76032  0.41040  0.32870  1.0000
  C   C175      1.0  0.76686  0.39997  0.41147  1.0000
  C   C176      1.0  0.76505  0.36846  0.41971  1.0000
  C   C177      1.0  0.75733  0.34818  0.34195  1.0000
  H   H108      1.0  0.76834  0.41317  0.46798  1.0000
  C   C178      1.0  0.76692  0.35574  0.50955  1.0000
  H   H109      1.0  0.77243  0.37415  0.56222  1.0000
  H   H110      1.0  0.78669  0.34936  0.51009  1.0000
  H   H111      1.0  0.74319  0.33347  0.52573  1.0000
  C   C179      1.0  0.59248  0.35034  0.32888  1.0000
  C   C180      1.0  0.60322  0.36752  0.41126  1.0000
  C   C181      1.0  0.63474  0.39726  0.41882  1.0000
  C   C182      1.0  0.65491  0.40967  0.34079  1.0000
  H   H112      1.0  0.59014  0.35601  0.46810  1.0000
  C   C183      1.0  0.64764  0.41204  0.50839  1.0000
  H   H113      1.0  0.62937  0.39920  0.56141  1.0000
  H   H114      1.0  0.65394  0.43816  0.50870  1.0000
  H   H115      1.0  0.66999  0.41068  0.52431  1.0000
  C   C184      1.0  0.85121  0.25994  0.32660  1.0000
  C   C185      1.0  0.86818  0.26632  0.40943  1.0000
  C   C186      1.0  0.89781  0.26436  0.41766  1.0000
  C   C187      1.0  0.91036  0.25665  0.33979  1.0000
  H   H116      1.0  0.85647  0.26768  0.46610  1.0000
  C   C188      1.0  0.91228  0.26603  0.50758  1.0000
  H   H117      1.0  0.89935  0.27147  0.56029  1.0000
  H   H118      1.0  0.93844  0.28576  0.50846  1.0000
  H   H119      1.0  0.91074  0.24224  0.52348  1.0000
  C   C189      1.0  0.74339  0.09179  0.33111  1.0000
  C   C190      1.0  0.73712  0.10291  0.41312  1.0000
  C   C191      1.0  0.73902  0.13450  0.41971  1.0000
  C   C192      1.0  0.74685  0.15441  0.34112  1.0000
  H   H120      1.0  0.73566  0.09004  0.47029  1.0000
  C   C193      1.0  0.73725  0.14771  0.50895  1.0000
  H   H121      1.0  0.73190  0.12963  0.56243  1.0000
  H   H122      1.0  0.71742  0.15399  0.50902  1.0000
  H   H123      1.0  0.76098  0.17012  0.52437  1.0000
  C   C194      1.0  0.91106  0.15199  0.32933  1.0000
  C   C195      1.0  0.90065  0.13524  0.41244  1.0000
  C   C196      1.0  0.86919  0.10550  0.42106  1.0000
  C   C197      1.0  0.84892  0.09267  0.34338  1.0000
  H   H124      1.0  0.91389  0.14701  0.46887  1.0000
  C   C198      1.0  0.85651  0.09102  0.51100  1.0000
  H   H125      1.0  0.87494  0.10400  0.56357  1.0000
  H   H126      1.0  0.85015  0.06487  0.51179  1.0000
  H   H127      1.0  0.83423  0.09248  0.52710  1.0000
  C   C199      1.0  0.98375  0.74117  0.35296  1.0000
  C   C200      1.0  0.92995  0.68739  0.33001  1.0000
  C   C201      1.0  0.96528  0.70553  0.33842  1.0000
  C   C202      1.0  0.51993  0.76115  0.35299  1.0000
  C   C203      1.0  0.53834  0.79675  0.33783  1.0000
  C   C204      1.0  0.57367  0.81495  0.32984  1.0000
  O   O37       1.0  0.97989  0.68690  0.31947  1.0000
  O   O38       1.0  0.52371  0.81528  0.31776  1.0000
  H   H128      1.0  0.48584  0.69039  0.25564  1.0000
  H   H129      1.0  0.87317  0.68592  0.25591  1.0000
  H   H130      1.0  0.63075  0.81653  0.25771  1.0000
  C   C205      1.0  0.76207  0.74325  0.35226  1.0000
  C   C206      1.0  0.81582  0.74334  0.32814  1.0000
  C   C207      1.0  0.79764  0.76047  0.33659  1.0000
  C   C208      1.0  0.74205  0.75939  0.35292  1.0000
  C   C209      1.0  0.70642  0.74215  0.33829  1.0000
  C   C210      1.0  0.68814  0.75925  0.33159  1.0000
  O   O39       1.0  0.81612  0.79368  0.31712  1.0000
  O   O40       1.0  0.68792  0.70898  0.31839  1.0000
  H   H131      1.0  0.81236  0.79599  0.25341  1.0000
  H   H132      1.0  0.69150  0.70681  0.25446  1.0000
  H   H133      1.0  0.81735  0.68795  0.25494  1.0000
  H   H134      1.0  0.68626  0.81471  0.26054  1.0000
  C   C211      1.0  0.76008  0.51921  0.35315  1.0000
  C   C212      1.0  0.76005  0.57307  0.33274  1.0000
  C   C213      1.0  0.74293  0.53767  0.33830  1.0000
  C   C214      1.0  0.74383  0.98304  0.35248  1.0000
  C   C215      1.0  0.76098  0.96459  0.33751  1.0000
  C   C216      1.0  0.74377  0.92925  0.32941  1.0000
  O   O41       1.0  0.70987  0.52308  0.31710  1.0000
  O   O42       1.0  0.79415  0.97919  0.31773  1.0000
  H   H135      1.0  0.70804  0.01744  0.25312  1.0000
  H   H136      1.0  0.79641  0.48523  0.25398  1.0000
  H   H137      1.0  0.81572  0.63066  0.26375  1.0000
  H   H138      1.0  0.68829  0.87222  0.25704  1.0000
  N   N37       1.0  0.61116  0.75062  0.26507  1.0000
  N   N38       1.0  0.63863  0.74935  0.25974  1.0000
  N   N39       1.0  0.75229  0.86066  0.26488  1.0000
  N   N40       1.0  0.75345  0.88934  0.25858  1.0000
  N   N41       1.0  0.64211  0.89193  0.26416  1.0000
  N   N42       1.0  0.61340  0.86443  0.25844  1.0000
  N   N43       1.0  0.89296  0.75194  0.26271  1.0000
  N   N44       1.0  0.86551  0.75322  0.25650  1.0000
  N   N45       1.0  0.75161  0.64127  0.26492  1.0000
  N   N46       1.0  0.75025  0.61248  0.26009  1.0000
  N   N47       1.0  0.86132  0.61004  0.26607  1.0000
  N   N48       1.0  0.88996  0.63758  0.25941  1.0000
  C   C217      1.0  0.96347  0.75631  0.36345  1.0000
  C   C218      1.0  0.92905  0.73996  0.34310  1.0000
  C   C219      1.0  0.91252  0.70526  0.32588  1.0000
  H   H139      1.0  0.97360  0.78031  0.38478  1.0000
  O   O43       1.0  0.87841  0.68818  0.32013  1.0000
  C   C220      1.0  0.59120  0.79715  0.32683  1.0000
  C   C221      1.0  0.57471  0.76247  0.34420  1.0000
  C   C222      1.0  0.54024  0.74608  0.36408  1.0000
  O   O44       1.0  0.62532  0.81432  0.32180  1.0000
  H   H140      1.0  0.53011  0.72209  0.38550  1.0000
  C   C223      1.0  0.74704  0.70787  0.36339  1.0000
  C   C224      1.0  0.76339  0.68980  0.34285  1.0000
  C   C225      1.0  0.79802  0.70803  0.32476  1.0000
  H   H141      1.0  0.72312  0.69404  0.38532  1.0000
  O   O45       1.0  0.81523  0.69112  0.31913  1.0000
  C   C226      1.0  0.70588  0.79457  0.32881  1.0000
  C   C227      1.0  0.74063  0.81280  0.34509  1.0000
  C   C228      1.0  0.75713  0.79477  0.36408  1.0000
  O   O46       1.0  0.68869  0.81152  0.32452  1.0000
  H   H142      1.0  0.78118  0.80864  0.38509  1.0000
  C   C229      1.0  0.79546  0.53944  0.36469  1.0000
  C   C230      1.0  0.81353  0.57405  0.34669  1.0000
  C   C231      1.0  0.79538  0.59068  0.33103  1.0000
  H   H143      1.0  0.80930  0.52920  0.38540  1.0000
  O   O47       1.0  0.81235  0.62483  0.32758  1.0000
  C   C232      1.0  0.70845  0.91179  0.32611  1.0000
  C   C233      1.0  0.69031  0.92835  0.34322  1.0000
  C   C234      1.0  0.70843  0.96280  0.36329  1.0000
  O   O48       1.0  0.69146  0.87767  0.32113  1.0000
  H   H144      1.0  0.69462  0.97298  0.38477  1.0000
  C   C235      1.0  0.65277  0.74263  0.33032  1.0000
  C   C236      1.0  0.63550  0.73627  0.41262  1.0000
  C   C237      1.0  0.60581  0.73815  0.41998  1.0000
  C   C238      1.0  0.59349  0.74586  0.34168  1.0000
  H   H145      1.0  0.64706  0.73494  0.46963  1.0000
  C   C239      1.0  0.59104  0.73641  0.50950  1.0000
  H   H146      1.0  0.60384  0.73100  0.56265  1.0000
  H   H147      1.0  0.56490  0.71663  0.50989  1.0000
  H   H148      1.0  0.59247  0.76017  0.52516  1.0000
  C   C240      1.0  0.76032  0.91040  0.32870  1.0000
  C   C241      1.0  0.76687  0.89997  0.41147  1.0000
  C   C242      1.0  0.76505  0.86846  0.41971  1.0000
  C   C243      1.0  0.75733  0.84819  0.34195  1.0000
  H   H149      1.0  0.76835  0.91318  0.46798  1.0000
  C   C244      1.0  0.76692  0.85574  0.50955  1.0000
  H   H150      1.0  0.77243  0.87415  0.56222  1.0000
  H   H151      1.0  0.78669  0.84936  0.51009  1.0000
  H   H152      1.0  0.74318  0.83347  0.52573  1.0000
  C   C245      1.0  0.59248  0.85034  0.32888  1.0000
  C   C246      1.0  0.60322  0.86752  0.41126  1.0000
  C   C247      1.0  0.63474  0.89726  0.41882  1.0000
  C   C248      1.0  0.65492  0.90967  0.34079  1.0000
  H   H153      1.0  0.59014  0.85601  0.46810  1.0000
  C   C249      1.0  0.64764  0.91204  0.50839  1.0000
  H   H154      1.0  0.62937  0.89920  0.56141  1.0000
  H   H155      1.0  0.65394  0.93816  0.50870  1.0000
  H   H156      1.0  0.66999  0.91068  0.52431  1.0000
  C   C250      1.0  0.85121  0.75993  0.32660  1.0000
  C   C251      1.0  0.86818  0.76632  0.40943  1.0000
  C   C252      1.0  0.89781  0.76436  0.41766  1.0000
  C   C253      1.0  0.91036  0.75665  0.33979  1.0000
  H   H157      1.0  0.85647  0.76768  0.46610  1.0000
  C   C254      1.0  0.91228  0.76603  0.50758  1.0000
  H   H158      1.0  0.89935  0.77147  0.56029  1.0000
  H   H159      1.0  0.93844  0.78577  0.50846  1.0000
  H   H160      1.0  0.91074  0.74224  0.52348  1.0000
  C   C255      1.0  0.74340  0.59179  0.33111  1.0000
  C   C256      1.0  0.73712  0.60291  0.41312  1.0000
  C   C257      1.0  0.73902  0.63450  0.41971  1.0000
  C   C258      1.0  0.74685  0.65441  0.34112  1.0000
  H   H161      1.0  0.73566  0.59004  0.47029  1.0000
  C   C259      1.0  0.73725  0.64771  0.50895  1.0000
  H   H162      1.0  0.73190  0.62963  0.56243  1.0000
  H   H163      1.0  0.71742  0.65399  0.50902  1.0000
  H   H164      1.0  0.76098  0.67012  0.52437  1.0000
  C   C260      1.0  0.91106  0.65199  0.32933  1.0000
  C   C261      1.0  0.90065  0.63524  0.41244  1.0000
  C   C262      1.0  0.86919  0.60550  0.42106  1.0000
  C   C263      1.0  0.84892  0.59267  0.34338  1.0000
  H   H165      1.0  0.91389  0.64701  0.46887  1.0000
  C   C264      1.0  0.85651  0.59102  0.51100  1.0000
  H   H166      1.0  0.87494  0.60400  0.56357  1.0000
  H   H167      1.0  0.85015  0.56487  0.51179  1.0000
  H   H168      1.0  0.83423  0.59248  0.52710  1.0000
