data_image0
_chemical_formula_structural       C3N3HCN3HCN3HNCNCNC3O3NCNCNC3O3C3NH3NHC3NH3NHC3NH3NHC3N3HCN3HCN3HNCNCNC3O3NCNCNC3O3C3NH3NHC3NH3NHC3NH3NHC3N3HCN3HCN3HNCNCNC3O3NCNCNC3O3C3NH3NHC3NH3NHC3NH3NHC3N3HCN3HCN3HNCNCNC3O3NCNCNC3O3C3NH3NHC3NH3NHC3NH3NH
_chemical_formula_sum              "C96 N84 H60 O24"
_cell_length_a       43.2106
_cell_length_b       43.2106
_cell_length_c       15.0473
_cell_angle_alpha    90
_cell_angle_beta     90
_cell_angle_gamma    120

_space_group_name_H-M_alt    "P 1"
_space_group_IT_number       1

loop_
  _space_group_symop_operation_xyz
  'x, y, z'

loop_
  _atom_site_type_symbol
  _atom_site_label
  _atom_site_symmetry_multiplicity
  _atom_site_fract_x
  _atom_site_fract_y
  _atom_site_fract_z
  _atom_site_occupancy
  C   C1        1.0  0.12798  0.31795  0.42219  1.0000
  C   C2        1.0  0.36572  0.17228  0.26269  1.0000
  C   C3        1.0  0.27343  0.23880  0.31983  1.0000
  N   N1        1.0  0.22473  0.24699  0.34942  1.0000
  N   N2        1.0  0.23810  0.22824  0.31699  1.0000
  N   N3        1.0  0.28346  0.21586  0.28568  1.0000
  H   H1        1.0  0.26377  0.19225  0.26988  1.0000
  C   C4        1.0  0.25730  0.03386  0.31995  1.0000
  N   N4        1.0  0.24908  0.47695  0.34943  1.0000
  N   N5        1.0  0.26785  0.00908  0.31707  1.0000
  N   N6        1.0  0.28024  0.06683  0.28586  1.0000
  H   H2        1.0  0.30385  0.07076  0.27009  1.0000
  C   C5        1.0  0.46221  0.22265  0.31994  1.0000
  N   N7        1.0  0.01913  0.27135  0.34940  1.0000
  N   N8        1.0  0.48699  0.25797  0.31704  1.0000
  N   N9        1.0  0.42924  0.21261  0.28579  1.0000
  H   H3        1.0  0.42533  0.23230  0.26996  1.0000
  N   N10       1.0  0.15078  0.35379  0.42166  1.0000
  C   C6        1.0  0.18683  0.36810  0.42218  1.0000
  N   N11       1.0  0.19988  0.34530  0.42166  1.0000
  C   C7        1.0  0.17814  0.30924  0.42221  1.0000
  N   N12       1.0  0.14229  0.29620  0.42166  1.0000
  C   C8        1.0  0.21016  0.40520  0.41520  1.0000
  C   C9        1.0  0.19191  0.28592  0.41520  1.0000
  C   C10       1.0  0.09088  0.30416  0.41517  1.0000
  O   O1        1.0  0.16777  0.25061  0.40691  1.0000
  O   O2        1.0  0.07971  0.32831  0.40687  1.0000
  O   O3        1.0  0.24547  0.41637  0.40685  1.0000
  N   N13       1.0  0.33799  0.13813  0.26350  1.0000
  C   C11       1.0  0.30341  0.13036  0.26276  1.0000
  N   N14       1.0  0.29699  0.15809  0.26344  1.0000
  C   C12       1.0  0.32380  0.19267  0.26265  1.0000
  N   N15       1.0  0.35795  0.19909  0.26340  1.0000
  C   C13       1.0  0.27497  0.09520  0.27411  1.0000
  C   C14       1.0  0.31709  0.22112  0.27395  1.0000
  C   C15       1.0  0.40087  0.17898  0.27406  1.0000
  O   O4        1.0  0.34611  0.25437  0.27553  1.0000
  O   O5        1.0  0.40510  0.14996  0.27577  1.0000
  O   O6        1.0  0.24171  0.09095  0.27566  1.0000
  C   C16       1.0  0.29559  0.27145  0.36407  1.0000
  C   C17       1.0  0.28147  0.29188  0.40140  1.0000
  C   C18       1.0  0.24415  0.27894  0.39143  1.0000
  N   N16       1.0  0.30403  0.32199  0.44750  1.0000
  H   H4        1.0  0.32915  0.32926  0.45498  1.0000
  H   H5        1.0  0.29552  0.33532  0.48137  1.0000
  H   H6        1.0  0.32186  0.27964  0.37464  1.0000
  N   N17       1.0  0.22773  0.29770  0.41552  1.0000
  H   H7        1.0  0.24321  0.32265  0.43066  1.0000
  C   C19       1.0  0.22464  0.02336  0.36417  1.0000
  C   C20       1.0  0.20420  0.48880  0.40143  1.0000
  C   C21       1.0  0.21713  0.46441  0.39138  1.0000
  N   N18       1.0  0.17410  0.48126  0.44756  1.0000
  H   H8        1.0  0.16669  0.49903  0.45462  1.0000
  H   H9        1.0  0.16055  0.45931  0.48081  1.0000
  H   H10       1.0  0.21649  0.04146  0.37488  1.0000
  N   N19       1.0  0.19838  0.42924  0.41554  1.0000
  H   H11       1.0  0.17344  0.41976  0.43073  1.0000
  C   C22       1.0  0.47271  0.20049  0.36415  1.0000
  C   C23       1.0  0.00728  0.21460  0.40140  1.0000
  C   C24       1.0  0.03166  0.25193  0.39135  1.0000
  N   N20       1.0  0.01484  0.19206  0.44756  1.0000
  H   H12       1.0  0.99698  0.16694  0.45509  1.0000
  H   H13       1.0  0.03667  0.20056  0.48135  1.0000
  H   H14       1.0  0.45464  0.17422  0.37477  1.0000
  N   N21       1.0  0.06684  0.26835  0.41549  1.0000
  H   H15       1.0  0.07631  0.25287  0.43063  1.0000
  C   C25       1.0  0.12798  0.81794  0.42219  1.0000
  C   C26       1.0  0.36572  0.67228  0.26269  1.0000
  C   C27       1.0  0.27343  0.73879  0.31983  1.0000
  N   N22       1.0  0.22473  0.74699  0.34942  1.0000
  N   N23       1.0  0.23810  0.72824  0.31699  1.0000
  N   N24       1.0  0.28346  0.71586  0.28568  1.0000
  H   H16       1.0  0.26377  0.69225  0.26988  1.0000
  C   C28       1.0  0.25730  0.53386  0.31995  1.0000
  N   N25       1.0  0.24908  0.97694  0.34943  1.0000
  N   N26       1.0  0.26785  0.50908  0.31707  1.0000
  N   N27       1.0  0.28024  0.56683  0.28586  1.0000
  H   H17       1.0  0.30385  0.57076  0.27009  1.0000
  C   C29       1.0  0.46221  0.72265  0.31994  1.0000
  N   N28       1.0  0.01913  0.77134  0.34940  1.0000
  N   N29       1.0  0.48699  0.75797  0.31704  1.0000
  N   N30       1.0  0.42925  0.71261  0.28579  1.0000
  H   H18       1.0  0.42533  0.73230  0.26996  1.0000
  N   N31       1.0  0.15078  0.85379  0.42166  1.0000
  C   C30       1.0  0.18684  0.86810  0.42218  1.0000
  N   N32       1.0  0.19988  0.84530  0.42166  1.0000
  C   C31       1.0  0.17814  0.80924  0.42221  1.0000
  N   N33       1.0  0.14229  0.79621  0.42166  1.0000
  C   C32       1.0  0.21016  0.90520  0.41520  1.0000
  C   C33       1.0  0.19191  0.78592  0.41520  1.0000
  C   C34       1.0  0.09088  0.80416  0.41517  1.0000
  O   O7        1.0  0.16777  0.75061  0.40691  1.0000
  O   O8        1.0  0.07971  0.82830  0.40687  1.0000
  O   O9        1.0  0.24547  0.91637  0.40685  1.0000
  N   N34       1.0  0.33799  0.63813  0.26350  1.0000
  C   C35       1.0  0.30340  0.63036  0.26276  1.0000
  N   N35       1.0  0.29698  0.65808  0.26344  1.0000
  C   C36       1.0  0.32380  0.69267  0.26265  1.0000
  N   N36       1.0  0.35795  0.69909  0.26340  1.0000
  C   C37       1.0  0.27497  0.59520  0.27411  1.0000
  C   C38       1.0  0.31709  0.72112  0.27395  1.0000
  C   C39       1.0  0.40087  0.67898  0.27406  1.0000
  O   O10       1.0  0.34611  0.75437  0.27553  1.0000
  O   O11       1.0  0.40510  0.64995  0.27577  1.0000
  O   O12       1.0  0.24171  0.59095  0.27566  1.0000
  C   C40       1.0  0.29560  0.77145  0.36407  1.0000
  C   C41       1.0  0.28147  0.79188  0.40140  1.0000
  C   C42       1.0  0.24415  0.77894  0.39143  1.0000
  N   N37       1.0  0.30403  0.82199  0.44750  1.0000
  H   H19       1.0  0.32915  0.82926  0.45498  1.0000
  H   H20       1.0  0.29552  0.83532  0.48137  1.0000
  H   H21       1.0  0.32186  0.77964  0.37464  1.0000
  N   N38       1.0  0.22773  0.79770  0.41552  1.0000
  H   H22       1.0  0.24321  0.82265  0.43066  1.0000
  C   C43       1.0  0.22464  0.52336  0.36417  1.0000
  C   C44       1.0  0.20420  0.98880  0.40143  1.0000
  C   C45       1.0  0.21713  0.96441  0.39138  1.0000
  N   N39       1.0  0.17410  0.98126  0.44756  1.0000
  H   H23       1.0  0.16669  0.99903  0.45462  1.0000
  H   H24       1.0  0.16055  0.95931  0.48081  1.0000
  H   H25       1.0  0.21649  0.54146  0.37488  1.0000
  N   N40       1.0  0.19838  0.92924  0.41554  1.0000
  H   H26       1.0  0.17344  0.91976  0.43073  1.0000
  C   C46       1.0  0.47271  0.70049  0.36415  1.0000
  C   C47       1.0  0.00728  0.71461  0.40140  1.0000
  C   C48       1.0  0.03166  0.75192  0.39135  1.0000
  N   N41       1.0  0.01483  0.69206  0.44756  1.0000
  H   H27       1.0  0.99698  0.66693  0.45509  1.0000
  H   H28       1.0  0.03667  0.70056  0.48135  1.0000
  H   H29       1.0  0.45464  0.67422  0.37477  1.0000
  N   N42       1.0  0.06684  0.76834  0.41549  1.0000
  H   H30       1.0  0.07631  0.75287  0.43063  1.0000
  C   C49       1.0  0.62798  0.31795  0.42219  1.0000
  C   C50       1.0  0.86572  0.17228  0.26269  1.0000
  C   C51       1.0  0.77343  0.23880  0.31983  1.0000
  N   N43       1.0  0.72473  0.24699  0.34942  1.0000
  N   N44       1.0  0.73810  0.22824  0.31699  1.0000
  N   N45       1.0  0.78346  0.21586  0.28568  1.0000
  H   H31       1.0  0.76377  0.19225  0.26988  1.0000
  C   C52       1.0  0.75730  0.03386  0.31995  1.0000
  N   N46       1.0  0.74908  0.47695  0.34943  1.0000
  N   N47       1.0  0.76785  0.00908  0.31707  1.0000
  N   N48       1.0  0.78024  0.06683  0.28586  1.0000
  H   H32       1.0  0.80385  0.07076  0.27009  1.0000
  C   C53       1.0  0.96221  0.22265  0.31994  1.0000
  N   N49       1.0  0.51913  0.27135  0.34940  1.0000
  N   N50       1.0  0.98699  0.25797  0.31704  1.0000
  N   N51       1.0  0.92924  0.21261  0.28579  1.0000
  H   H33       1.0  0.92533  0.23230  0.26996  1.0000
  N   N52       1.0  0.65078  0.35379  0.42166  1.0000
  C   C54       1.0  0.68683  0.36810  0.42218  1.0000
  N   N53       1.0  0.69988  0.34530  0.42166  1.0000
  C   C55       1.0  0.67814  0.30924  0.42221  1.0000
  N   N54       1.0  0.64229  0.29620  0.42166  1.0000
  C   C56       1.0  0.71016  0.40520  0.41520  1.0000
  C   C57       1.0  0.69191  0.28592  0.41520  1.0000
  C   C58       1.0  0.59088  0.30416  0.41517  1.0000
  O   O13       1.0  0.66777  0.25061  0.40691  1.0000
  O   O14       1.0  0.57971  0.32831  0.40687  1.0000
  O   O15       1.0  0.74547  0.41637  0.40685  1.0000
  N   N55       1.0  0.83799  0.13813  0.26350  1.0000
  C   C59       1.0  0.80341  0.13036  0.26276  1.0000
  N   N56       1.0  0.79699  0.15809  0.26344  1.0000
  C   C60       1.0  0.82380  0.19267  0.26265  1.0000
  N   N57       1.0  0.85795  0.19909  0.26340  1.0000
  C   C61       1.0  0.77497  0.09520  0.27411  1.0000
  C   C62       1.0  0.81709  0.22112  0.27395  1.0000
  C   C63       1.0  0.90087  0.17898  0.27406  1.0000
  O   O16       1.0  0.84611  0.25437  0.27553  1.0000
  O   O17       1.0  0.90510  0.14996  0.27577  1.0000
  O   O18       1.0  0.74171  0.09095  0.27566  1.0000
  C   C64       1.0  0.79560  0.27145  0.36407  1.0000
  C   C65       1.0  0.78147  0.29188  0.40140  1.0000
  C   C66       1.0  0.74415  0.27894  0.39143  1.0000
  N   N58       1.0  0.80403  0.32199  0.44750  1.0000
  H   H34       1.0  0.82915  0.32926  0.45498  1.0000
  H   H35       1.0  0.79552  0.33532  0.48137  1.0000
  H   H36       1.0  0.82186  0.27964  0.37464  1.0000
  N   N59       1.0  0.72773  0.29770  0.41552  1.0000
  H   H37       1.0  0.74321  0.32265  0.43066  1.0000
  C   C67       1.0  0.72464  0.02336  0.36417  1.0000
  C   C68       1.0  0.70420  0.48880  0.40143  1.0000
  C   C69       1.0  0.71712  0.46441  0.39138  1.0000
  N   N60       1.0  0.67410  0.48126  0.44756  1.0000
  H   H38       1.0  0.66669  0.49903  0.45462  1.0000
  H   H39       1.0  0.66055  0.45931  0.48081  1.0000
  H   H40       1.0  0.71649  0.04146  0.37488  1.0000
  N   N61       1.0  0.69838  0.42924  0.41554  1.0000
  H   H41       1.0  0.67344  0.41976  0.43073  1.0000
  C   C70       1.0  0.97271  0.20049  0.36415  1.0000
  C   C71       1.0  0.50728  0.21460  0.40140  1.0000
  C   C72       1.0  0.53166  0.25193  0.39135  1.0000
  N   N62       1.0  0.51484  0.19206  0.44756  1.0000
  H   H42       1.0  0.49698  0.16694  0.45509  1.0000
  H   H43       1.0  0.53667  0.20056  0.48135  1.0000
  H   H44       1.0  0.95464  0.17422  0.37477  1.0000
  N   N63       1.0  0.56684  0.26835  0.41549  1.0000
  H   H45       1.0  0.57632  0.25287  0.43063  1.0000
  C   C73       1.0  0.62798  0.81794  0.42219  1.0000
  C   C74       1.0  0.86572  0.67228  0.26269  1.0000
  C   C75       1.0  0.77343  0.73879  0.31983  1.0000
  N   N64       1.0  0.72473  0.74699  0.34942  1.0000
  N   N65       1.0  0.73810  0.72824  0.31699  1.0000
  N   N66       1.0  0.78346  0.71586  0.28568  1.0000
  H   H46       1.0  0.76377  0.69225  0.26988  1.0000
  C   C76       1.0  0.75730  0.53386  0.31995  1.0000
  N   N67       1.0  0.74908  0.97694  0.34943  1.0000
  N   N68       1.0  0.76785  0.50908  0.31707  1.0000
  N   N69       1.0  0.78024  0.56683  0.28586  1.0000
  H   H47       1.0  0.80385  0.57076  0.27009  1.0000
  C   C77       1.0  0.96221  0.72265  0.31994  1.0000
  N   N70       1.0  0.51913  0.77134  0.34940  1.0000
  N   N71       1.0  0.98699  0.75797  0.31704  1.0000
  N   N72       1.0  0.92925  0.71261  0.28579  1.0000
  H   H48       1.0  0.92533  0.73230  0.26996  1.0000
  N   N73       1.0  0.65078  0.85379  0.42166  1.0000
  C   C78       1.0  0.68683  0.86810  0.42218  1.0000
  N   N74       1.0  0.69988  0.84530  0.42166  1.0000
  C   C79       1.0  0.67814  0.80924  0.42221  1.0000
  N   N75       1.0  0.64229  0.79621  0.42166  1.0000
  C   C80       1.0  0.71016  0.90520  0.41520  1.0000
  C   C81       1.0  0.69191  0.78592  0.41520  1.0000
  C   C82       1.0  0.59088  0.80416  0.41517  1.0000
  O   O19       1.0  0.66777  0.75061  0.40691  1.0000
  O   O20       1.0  0.57971  0.82830  0.40687  1.0000
  O   O21       1.0  0.74547  0.91637  0.40685  1.0000
  N   N76       1.0  0.83799  0.63813  0.26350  1.0000
  C   C83       1.0  0.80340  0.63036  0.26276  1.0000
  N   N77       1.0  0.79698  0.65808  0.26344  1.0000
  C   C84       1.0  0.82380  0.69267  0.26265  1.0000
  N   N78       1.0  0.85795  0.69909  0.26340  1.0000
  C   C85       1.0  0.77497  0.59520  0.27411  1.0000
  C   C86       1.0  0.81709  0.72112  0.27395  1.0000
  C   C87       1.0  0.90087  0.67898  0.27406  1.0000
  O   O22       1.0  0.84611  0.75437  0.27553  1.0000
  O   O23       1.0  0.90510  0.64995  0.27577  1.0000
  O   O24       1.0  0.74171  0.59095  0.27566  1.0000
  C   C88       1.0  0.79559  0.77145  0.36407  1.0000
  C   C89       1.0  0.78147  0.79188  0.40140  1.0000
  C   C90       1.0  0.74415  0.77894  0.39143  1.0000
  N   N79       1.0  0.80403  0.82199  0.44750  1.0000
  H   H49       1.0  0.82915  0.82926  0.45498  1.0000
  H   H50       1.0  0.79552  0.83532  0.48137  1.0000
  H   H51       1.0  0.82186  0.77964  0.37464  1.0000
  N   N80       1.0  0.72773  0.79770  0.41552  1.0000
  H   H52       1.0  0.74321  0.82265  0.43066  1.0000
  C   C91       1.0  0.72464  0.52336  0.36417  1.0000
  C   C92       1.0  0.70420  0.98880  0.40143  1.0000
  C   C93       1.0  0.71713  0.96441  0.39138  1.0000
  N   N81       1.0  0.67410  0.98126  0.44756  1.0000
  H   H53       1.0  0.66669  0.99903  0.45462  1.0000
  H   H54       1.0  0.66055  0.95931  0.48081  1.0000
  H   H55       1.0  0.71649  0.54146  0.37488  1.0000
  N   N82       1.0  0.69838  0.92924  0.41554  1.0000
  H   H56       1.0  0.67344  0.91976  0.43073  1.0000
  C   C94       1.0  0.97271  0.70049  0.36415  1.0000
  C   C95       1.0  0.50728  0.71461  0.40140  1.0000
  C   C96       1.0  0.53166  0.75192  0.39135  1.0000
  N   N83       1.0  0.51484  0.69206  0.44756  1.0000
  H   H57       1.0  0.49698  0.66693  0.45509  1.0000
  H   H58       1.0  0.53667  0.70056  0.48135  1.0000
  H   H59       1.0  0.95464  0.67422  0.37477  1.0000
  N   N84       1.0  0.56684  0.76834  0.41549  1.0000
  H   H60       1.0  0.57631  0.75287  0.43063  1.0000
