data_image0
_chemical_formula_structural       C4NC2NC2H2C4NC2NC2H2C2H2C2H2C2H2C3H3C2H2C2H2C2H2C2H3C4NC2NC2H2C4NC2NC2H2C4NC2NC2H2C4NC2NC2H2C2H2C2H2C2H2C2H2C2H2C2H2C2H2C2H2C4NC2NC2H2C4NC2NC2H2C4NC2NC2H2C4NC2NC2H2CNCNCNCNCNCNCNCNCNCNCNCNCNCNCNCNCNCNCNCNCNCNCNCNCNCNCNCNCNCNCNCNCNCNCNCNC2H2C2H2C2H2C2H2C4NC2NC2H2C4NC2NCHC4NC2NC2H2C4NC2NC2HC2H2C2H2C2H2C2H2C2H2C2H2C2H2C2H2C4NC2NC2H2C4NC2NC2H2C4NC2NC2H2C4NC2NC2H2C2H2C2H2C2H2C2H2C2H2C2H2C2H2C2H2
_chemical_formula_sum              "C252 N72 H108"
_cell_length_a       34.0793
_cell_length_b       33.9184
_cell_length_c       14.8919
_cell_angle_alpha    90
_cell_angle_beta     90
_cell_angle_gamma    90.2784

_space_group_name_H-M_alt    "P 1"
_space_group_IT_number       1

loop_
  _space_group_symop_operation_xyz
  'x, y, z'

loop_
  _atom_site_type_symbol
  _atom_site_label
  _atom_site_symmetry_multiplicity
  _atom_site_fract_x
  _atom_site_fract_y
  _atom_site_fract_z
  _atom_site_occupancy
  C   C1        1.0  0.97091  0.53604  0.34676  1.0000
  C   C2        1.0  0.97902  0.51252  0.27042  1.0000
  C   C3        1.0  0.00917  0.48342  0.27249  1.0000
  C   C4        1.0  0.03163  0.47669  0.35103  1.0000
  N   N1        1.0  0.01767  0.46406  0.19500  1.0000
  C   C5        1.0  0.99879  0.47080  0.11650  1.0000
  C   C6        1.0  0.96857  0.49922  0.11452  1.0000
  N   N2        1.0  0.96011  0.51894  0.19125  1.0000
  C   C7        1.0  0.00970  0.45124  0.03732  1.0000
  C   C8        1.0  0.94925  0.50739  0.03326  1.0000
  H   H1        1.0  0.03313  0.43281  0.03813  1.0000
  H   H2        1.0  0.92882  0.52907  0.03074  1.0000
  C   C9        1.0  0.46900  0.97453  0.33922  1.0000
  C   C10       1.0  0.49244  0.98248  0.26269  1.0000
  C   C11       1.0  0.52204  0.01245  0.26454  1.0000
  C   C12       1.0  0.52944  0.03465  0.34334  1.0000
  N   N3        1.0  0.54122  0.02099  0.18682  1.0000
  C   C13       1.0  0.53390  0.00220  0.10827  1.0000
  C   C14       1.0  0.50515  0.97199  0.10667  1.0000
  N   N4        1.0  0.48554  0.96359  0.18357  1.0000
  C   C15       1.0  0.55328  0.01305  0.02871  1.0000
  C   C16       1.0  0.49655  0.95253  0.02562  1.0000
  H   H3        1.0  0.57190  0.03656  0.02889  1.0000
  H   H4        1.0  0.47464  0.93213  0.02342  1.0000
  C   C17       1.0  0.07885  0.31439  0.26643  1.0000
  C   C18       1.0  0.07101  0.27346  0.26600  1.0000
  H   H5        1.0  0.07763  0.25756  0.20960  1.0000
  H   H6        1.0  0.09117  0.32690  0.21049  1.0000
  C   C19       1.0  0.02097  0.32401  0.06682  1.0000
  C   C20       1.0  0.01379  0.28310  0.06685  1.0000
  H   H7        1.0  0.01803  0.33988  0.12476  1.0000
  H   H8        1.0  0.00562  0.26922  0.12489  1.0000
  C   C21       1.0  0.92262  0.69829  0.28096  1.0000
  C   C22       1.0  0.93085  0.73900  0.28386  1.0000
  H   H9        1.0  0.92453  0.75573  0.22848  1.0000
  H   H10       1.0  0.91040  0.68677  0.22379  1.0000
  C   C23       1.0  0.98470  0.67873  0.07744  1.0000
  C   C24       1.0  0.99123  0.71971  0.08195  1.0000
  C   C25       1.0  0.98591  0.74332  0.00518  1.0000
  H   H11       1.0  0.98832  0.66173  0.13352  1.0000
  H   H12       1.0  0.99957  0.73240  0.14128  1.0000
  H   H13       1.0  0.98965  0.77313  0.00959  1.0000
  C   C26       1.0  0.69176  0.08173  0.27223  1.0000
  C   C27       1.0  0.73251  0.07433  0.27138  1.0000
  H   H14       1.0  0.74818  0.08110  0.21473  1.0000
  H   H15       1.0  0.67922  0.09392  0.21634  1.0000
  C   C28       1.0  0.68328  0.02206  0.07216  1.0000
  C   C29       1.0  0.72416  0.01638  0.07200  1.0000
  H   H16       1.0  0.66762  0.01840  0.13014  1.0000
  H   H17       1.0  0.73824  0.00856  0.12989  1.0000
  C   C30       1.0  0.30696  0.92671  0.27590  1.0000
  C   C31       1.0  0.26660  0.93543  0.27856  1.0000
  H   H18       1.0  0.24987  0.92927  0.22311  1.0000
  H   H19       1.0  0.31824  0.91438  0.21873  1.0000
  C   C32       1.0  0.32691  0.98842  0.07289  1.0000
  C   C33       1.0  0.28630  0.99569  0.07687  1.0000
  H   H20       1.0  0.34379  0.99180  0.12916  1.0000
  H   H21       1.0  0.27376  0.00434  0.13600  1.0000
  H   H22       1.0  0.23328  0.99514  0.00376  1.0000
  C   C34       1.0  0.44955  0.75325  0.32361  1.0000
  C   C35       1.0  0.45593  0.77625  0.24561  1.0000
  C   C36       1.0  0.44664  0.81728  0.24406  1.0000
  C   C37       1.0  0.43104  0.83603  0.32126  1.0000
  N   N5        1.0  0.45090  0.83700  0.16494  1.0000
  C   C38       1.0  0.46366  0.81958  0.08819  1.0000
  C   C39       1.0  0.47307  0.77896  0.09019  1.0000
  N   N6        1.0  0.46872  0.75909  0.16850  1.0000
  C   C40       1.0  0.46654  0.84044  0.00675  1.0000
  C   C41       1.0  0.48530  0.75972  0.01135  1.0000
  H   H23       1.0  0.45792  0.86903  0.00340  1.0000
  H   H24       1.0  0.49045  0.73014  0.01179  1.0000
  C   C42       1.0  0.55190  0.25482  0.32973  1.0000
  C   C43       1.0  0.54477  0.23007  0.25472  1.0000
  C   C44       1.0  0.55284  0.18885  0.25942  1.0000
  C   C45       1.0  0.56872  0.17197  0.33840  1.0000
  N   N7        1.0  0.54682  0.16659  0.18455  1.0000
  C   C46       1.0  0.53400  0.18162  0.10551  1.0000
  C   C47       1.0  0.52695  0.22271  0.10007  1.0000
  N   N8        1.0  0.53240  0.24506  0.17478  1.0000
  C   C48       1.0  0.52890  0.15757  0.02924  1.0000
  C   C49       1.0  0.51557  0.23948  0.01767  1.0000
  H   H25       1.0  0.53418  0.12794  0.03274  1.0000
  H   H26       1.0  0.51192  0.26922  0.01223  1.0000
  C   C50       1.0  0.75000  0.55590  0.32625  1.0000
  C   C51       1.0  0.77303  0.54916  0.24867  1.0000
  C   C52       1.0  0.81412  0.55785  0.24798  1.0000
  C   C53       1.0  0.83289  0.57309  0.32567  1.0000
  N   N9        1.0  0.83393  0.55333  0.16924  1.0000
  C   C54       1.0  0.81658  0.54083  0.09210  1.0000
  C   C55       1.0  0.77591  0.53201  0.09324  1.0000
  N   N10       1.0  0.75593  0.53664  0.17116  1.0000
  C   C56       1.0  0.83760  0.53761  0.01111  1.0000
  C   C57       1.0  0.75679  0.52002  0.01397  1.0000
  H   H27       1.0  0.86629  0.54577  0.00838  1.0000
  H   H28       1.0  0.72722  0.51529  0.01376  1.0000
  C   C58       1.0  0.25158  0.45511  0.33022  1.0000
  C   C59       1.0  0.23200  0.43926  0.25432  1.0000
  C   C60       1.0  0.19099  0.43067  0.25775  1.0000
  C   C61       1.0  0.16876  0.43883  0.33597  1.0000
  N   N11       1.0  0.17344  0.41620  0.18243  1.0000
  C   C62       1.0  0.19271  0.41018  0.10401  1.0000
  C   C63       1.0  0.23315  0.41996  0.09972  1.0000
  N   N12       1.0  0.25109  0.43372  0.17499  1.0000
  C   C64       1.0  0.17313  0.39589  0.02723  1.0000
  C   C65       1.0  0.25345  0.41620  0.01785  1.0000
  H   H29       1.0  0.14390  0.38901  0.02991  1.0000
  H   H30       1.0  0.28210  0.42480  0.01315  1.0000
  C   C66       1.0  0.09749  0.09180  0.25359  1.0000
  C   C67       1.0  0.12018  0.05730  0.25655  1.0000
  H   H31       1.0  0.11911  0.03856  0.20262  1.0000
  H   H32       1.0  0.08065  0.09691  0.19784  1.0000
  C   C68       1.0  0.14624  0.13223  0.05199  1.0000
  C   C69       1.0  0.16885  0.09762  0.05520  1.0000
  H   H33       1.0  0.14308  0.14912  0.10839  1.0000
  H   H34       1.0  0.18210  0.08944  0.11387  1.0000
  C   C70       1.0  0.90482  0.91827  0.25917  1.0000
  C   C71       1.0  0.88209  0.95276  0.26022  1.0000
  H   H35       1.0  0.88329  0.97096  0.20536  1.0000
  H   H36       1.0  0.92183  0.91265  0.20395  1.0000
  C   C72       1.0  0.85465  0.88030  0.05750  1.0000
  C   C73       1.0  0.83214  0.91497  0.05978  1.0000
  H   H37       1.0  0.85763  0.86358  0.11421  1.0000
  H   H38       1.0  0.81876  0.92340  0.11812  1.0000
  C   C74       1.0  0.91374  0.10157  0.25142  1.0000
  C   C75       1.0  0.94860  0.12392  0.25371  1.0000
  H   H39       1.0  0.96701  0.12257  0.19941  1.0000
  H   H40       1.0  0.90813  0.08459  0.19596  1.0000
  C   C76       1.0  0.87516  0.15126  0.04966  1.0000
  C   C77       1.0  0.91012  0.17350  0.05285  1.0000
  H   H41       1.0  0.85827  0.14833  0.10605  1.0000
  H   H42       1.0  0.91857  0.18672  0.11149  1.0000
  C   C78       1.0  0.08752  0.90906  0.26009  1.0000
  C   C79       1.0  0.05278  0.88655  0.26277  1.0000
  H   H43       1.0  0.03423  0.88779  0.20873  1.0000
  H   H44       1.0  0.09294  0.92602  0.20451  1.0000
  C   C80       1.0  0.12727  0.85871  0.05773  1.0000
  C   C81       1.0  0.09238  0.83635  0.06097  1.0000
  H   H45       1.0  0.14419  0.86167  0.11407  1.0000
  H   H46       1.0  0.08402  0.82308  0.11962  1.0000
  C   C82       1.0  0.36146  0.54596  0.35257  1.0000
  C   C83       1.0  0.36216  0.57037  0.27538  1.0000
  C   C84       1.0  0.38538  0.60548  0.27384  1.0000
  C   C85       1.0  0.40804  0.61652  0.34966  1.0000
  N   N13       1.0  0.38760  0.62604  0.19540  1.0000
  C   C86       1.0  0.36862  0.61508  0.11917  1.0000
  C   C87       1.0  0.34557  0.58019  0.12074  1.0000
  N   N14       1.0  0.34353  0.55936  0.19837  1.0000
  C   C88       1.0  0.37214  0.63695  0.03915  1.0000
  C   C89       1.0  0.32622  0.56737  0.04236  1.0000
  H   H47       1.0  0.38893  0.66202  0.03735  1.0000
  H   H48       1.0  0.30978  0.54206  0.04294  1.0000
  C   C90       1.0  0.64096  0.46214  0.34351  1.0000
  C   C91       1.0  0.63925  0.43652  0.26826  1.0000
  C   C92       1.0  0.61598  0.40141  0.27140  1.0000
  C   C93       1.0  0.59408  0.39158  0.34917  1.0000
  N   N15       1.0  0.61275  0.37934  0.19538  1.0000
  C   C94       1.0  0.63075  0.38868  0.11705  1.0000
  C   C95       1.0  0.65380  0.42353  0.11366  1.0000
  N   N16       1.0  0.65689  0.44599  0.18896  1.0000
  C   C96       1.0  0.62618  0.36511  0.03983  1.0000
  C   C97       1.0  0.67211  0.43444  0.03262  1.0000
  H   H49       1.0  0.60935  0.34008  0.04194  1.0000
  H   H50       1.0  0.68848  0.45958  0.02936  1.0000
  C   C98       1.0  0.54407  0.64549  0.34110  1.0000
  C   C99       1.0  0.56952  0.64379  0.26580  1.0000
  C   C100      1.0  0.60446  0.62073  0.26906  1.0000
  C   C101      1.0  0.61437  0.59905  0.34707  1.0000
  N   N17       1.0  0.62635  0.61748  0.19300  1.0000
  C   C102      1.0  0.61700  0.63531  0.11450  1.0000
  C   C103      1.0  0.58236  0.65819  0.11100  1.0000
  N   N18       1.0  0.56007  0.66126  0.18634  1.0000
  C   C104      1.0  0.64043  0.63079  0.03727  1.0000
  C   C105      1.0  0.57153  0.67642  0.02987  1.0000
  H   H51       1.0  0.66532  0.61408  0.03947  1.0000
  H   H52       1.0  0.54659  0.69274  0.02658  1.0000
  C   C106      1.0  0.45780  0.36266  0.34542  1.0000
  C   C107      1.0  0.43296  0.36356  0.26914  1.0000
  C   C108      1.0  0.39789  0.38653  0.26935  1.0000
  C   C109      1.0  0.38726  0.40890  0.34592  1.0000
  N   N19       1.0  0.37687  0.38881  0.19177  1.0000
  C   C110      1.0  0.38730  0.37007  0.11493  1.0000
  C   C111      1.0  0.42209  0.34740  0.11471  1.0000
  N   N20       1.0  0.44346  0.34531  0.19140  1.0000
  C   C112      1.0  0.36493  0.37341  0.03588  1.0000
  C   C113      1.0  0.43419  0.32839  0.03547  1.0000
  H   H53       1.0  0.34003  0.38990  0.03553  1.0000
  H   H54       1.0  0.45942  0.31241  0.03481  1.0000
  C   C114      1.0  0.12832  0.42889  0.34215  1.0000
  N   N21       1.0  0.09994  0.45688  0.35009  1.0000
  C   C115      1.0  0.06115  0.44692  0.35361  1.0000
  N   N22       1.0  0.05126  0.40785  0.34898  1.0000
  C   C116      1.0  0.07902  0.37912  0.34161  1.0000
  N   N23       1.0  0.11731  0.39035  0.33730  1.0000
  C   C117      1.0  0.87353  0.58303  0.32883  1.0000
  N   N24       1.0  0.90232  0.55520  0.33238  1.0000
  C   C118      1.0  0.94082  0.56524  0.34557  1.0000
  N   N25       1.0  0.95011  0.60421  0.35424  1.0000
  C   C119      1.0  0.92212  0.63269  0.34940  1.0000
  N   N26       1.0  0.88411  0.62153  0.33761  1.0000
  C   C120      1.0  0.57855  0.13142  0.34353  1.0000
  N   N27       1.0  0.55029  0.10287  0.34373  1.0000
  C   C121      1.0  0.55968  0.06390  0.34686  1.0000
  N   N28       1.0  0.59851  0.05386  0.34795  1.0000
  C   C122      1.0  0.62753  0.08182  0.34746  1.0000
  N   N29       1.0  0.61686  0.12040  0.34494  1.0000
  C   C123      1.0  0.42116  0.87677  0.32396  1.0000
  N   N30       1.0  0.44911  0.90573  0.32622  1.0000
  C   C124      1.0  0.43951  0.94444  0.33864  1.0000
  N   N31       1.0  0.40085  0.95380  0.34801  1.0000
  C   C125      1.0  0.37222  0.92563  0.34447  1.0000
  N   N32       1.0  0.38295  0.88738  0.33327  1.0000
  C   C126      1.0  0.99833  0.16122  0.33486  1.0000
  N   N33       1.0  0.00705  0.20043  0.33982  1.0000
  C   C127      1.0  0.04507  0.21346  0.33844  1.0000
  N   N34       1.0  0.07456  0.18648  0.33378  1.0000
  C   C128      1.0  0.06650  0.14718  0.32902  1.0000
  N   N35       1.0  0.02843  0.13531  0.32895  1.0000
  C   C129      1.0  0.00346  0.84937  0.34558  1.0000
  N   N36       1.0  0.99477  0.81043  0.35698  1.0000
  C   C130      1.0  0.95674  0.79758  0.35903  1.0000
  N   N37       1.0  0.92731  0.82440  0.34948  1.0000
  C   C131      1.0  0.93537  0.86343  0.33830  1.0000
  N   N38       1.0  0.97343  0.87516  0.33623  1.0000
  C   C132      1.0  0.84444  0.00245  0.33961  1.0000
  N   N39       1.0  0.80547  0.01093  0.34592  1.0000
  C   C133      1.0  0.79248  0.04900  0.34296  1.0000
  N   N40       1.0  0.81935  0.07879  0.33508  1.0000
  C   C134      1.0  0.85842  0.07096  0.32870  1.0000
  N   N41       1.0  0.87015  0.03285  0.33070  1.0000
  C   C135      1.0  0.15729  0.00836  0.34000  1.0000
  N   N42       1.0  0.19608  0.99984  0.35055  1.0000
  C   C136      1.0  0.20864  0.96167  0.35392  1.0000
  N   N43       1.0  0.18170  0.93194  0.34686  1.0000
  C   C137      1.0  0.14284  0.93985  0.33681  1.0000
  N   N44       1.0  0.13140  0.97802  0.33317  1.0000
  C   C138      1.0  0.50541  0.66080  0.33585  1.0000
  N   N45       1.0  0.49668  0.69981  0.32695  1.0000
  C   C139      1.0  0.45862  0.71240  0.32722  1.0000
  N   N46       1.0  0.42919  0.68524  0.33556  1.0000
  C   C140      1.0  0.43728  0.64619  0.34412  1.0000
  N   N47       1.0  0.47533  0.63474  0.34481  1.0000
  C   C141      1.0  0.49650  0.34736  0.34169  1.0000
  N   N48       1.0  0.50509  0.30837  0.33178  1.0000
  C   C142      1.0  0.54309  0.29573  0.32990  1.0000
  N   N49       1.0  0.57260  0.32285  0.33767  1.0000
  C   C143      1.0  0.56468  0.36191  0.34709  1.0000
  N   N50       1.0  0.52665  0.37343  0.34921  1.0000
  C   C144      1.0  0.65688  0.50085  0.33840  1.0000
  N   N51       1.0  0.69588  0.50922  0.32980  1.0000
  C   C145      1.0  0.70913  0.54732  0.32932  1.0000
  N   N52       1.0  0.68261  0.57717  0.33650  1.0000
  C   C146      1.0  0.64356  0.56945  0.34503  1.0000
  N   N53       1.0  0.63147  0.53132  0.34619  1.0000
  C   C147      1.0  0.34544  0.50742  0.34948  1.0000
  N   N54       1.0  0.30642  0.49993  0.34013  1.0000
  C   C148      1.0  0.29269  0.46229  0.33174  1.0000
  N   N55       1.0  0.31887  0.43185  0.33263  1.0000
  C   C149      1.0  0.35813  0.43872  0.34254  1.0000
  N   N56       1.0  0.37059  0.47660  0.35085  1.0000
  C   C150      1.0  0.02526  0.50225  0.42458  1.0000
  C   C151      1.0  0.99564  0.53134  0.42240  1.0000
  H   H55       1.0  0.99163  0.54865  0.47792  1.0000
  H   H56       1.0  0.04188  0.49943  0.48144  1.0000
  C   C152      1.0  0.98928  0.45836  0.62351  1.0000
  C   C153      1.0  0.95897  0.48641  0.62153  1.0000
  H   H57       1.0  0.99711  0.44385  0.56612  1.0000
  H   H58       1.0  0.94468  0.49225  0.56271  1.0000
  C   C154      1.0  0.50397  0.02850  0.41708  1.0000
  C   C155      1.0  0.47434  0.99917  0.41498  1.0000
  H   H59       1.0  0.45713  0.99530  0.47066  1.0000
  H   H60       1.0  0.50722  0.04510  0.47401  1.0000
  C   C156      1.0  0.54584  0.99235  0.61522  1.0000
  C   C157      1.0  0.51751  0.96201  0.61372  1.0000
  H   H61       1.0  0.56040  0.99996  0.55772  1.0000
  H   H62       1.0  0.51147  0.94751  0.55512  1.0000
  C   C158      1.0  0.05371  0.25452  0.34086  1.0000
  C   C159      1.0  0.04654  0.27751  0.41836  1.0000
  C   C160      1.0  0.05427  0.31893  0.41861  1.0000
  C   C161      1.0  0.06935  0.33816  0.34134  1.0000
  N   N57       1.0  0.04911  0.33887  0.49693  1.0000
  C   C162      1.0  0.03709  0.32133  0.57410  1.0000
  C   C163      1.0  0.02971  0.28024  0.57405  1.0000
  N   N58       1.0  0.03470  0.26014  0.49627  1.0000
  C   C164      1.0  0.03315  0.34289  0.65404  1.0000
  C   C165      1.0  0.01872  0.26112  0.65416  1.0000
  H   H63       1.0  0.03975  0.37205  0.65439  1.0000
  H   H64       1.0  0.01513  0.23126  0.65537  1.0000
  C   C166      1.0  0.94803  0.75659  0.36052  1.0000
  C   C167      1.0  0.95575  0.73226  0.43581  1.0000
  C   C168      1.0  0.94792  0.69088  0.43229  1.0000
  C   C169      1.0  0.93175  0.67342  0.35413  1.0000
  N   N59       1.0  0.95426  0.66911  0.50763  1.0000
  C   C170      1.0  0.96728  0.68474  0.58603  1.0000
  C   C171      1.0  0.97427  0.72593  0.59018  1.0000
  N   N60       1.0  0.96841  0.74783  0.51503  1.0000
  C   C172      1.0  0.97260  0.66119  0.66294  1.0000
  H   H65       1.0  0.96733  0.63150  0.66042  1.0000
  C   C173      1.0  0.75158  0.05733  0.34615  1.0000
  C   C174      1.0  0.72878  0.04983  0.42377  1.0000
  C   C175      1.0  0.68749  0.05696  0.42445  1.0000
  C   C176      1.0  0.66822  0.07208  0.34746  1.0000
  N   N61       1.0  0.66773  0.05095  0.50271  1.0000
  C   C177      1.0  0.68540  0.03893  0.57961  1.0000
  C   C178      1.0  0.72644  0.03273  0.57933  1.0000
  N   N62       1.0  0.74628  0.03829  0.50151  1.0000
  C   C179      1.0  0.66412  0.03384  0.65962  1.0000
  C   C180      1.0  0.74581  0.02224  0.65924  1.0000
  H   H66       1.0  0.63491  0.03922  0.66036  1.0000
  H   H67       1.0  0.77561  0.01979  0.66030  1.0000
  C   C181      1.0  0.24935  0.95286  0.35514  1.0000
  C   C182      1.0  0.27363  0.96021  0.43065  1.0000
  C   C183      1.0  0.31463  0.95182  0.42746  1.0000
  C   C184      1.0  0.33181  0.93548  0.34932  1.0000
  N   N63       1.0  0.33629  0.95781  0.50308  1.0000
  C   C185      1.0  0.32087  0.97103  0.58139  1.0000
  C   C186      1.0  0.28004  0.97868  0.58509  1.0000
  N   N64       1.0  0.25827  0.97313  0.50972  1.0000
  C   C187      1.0  0.34425  0.97598  0.65860  1.0000
  C   C188      1.0  0.26285  0.99074  0.66649  1.0000
  H   H68       1.0  0.37367  0.97024  0.65643  1.0000
  C   C189      1.0  0.42276  0.81223  0.39702  1.0000
  C   C190      1.0  0.43176  0.77170  0.39818  1.0000
  H   H69       1.0  0.42575  0.75582  0.45505  1.0000
  H   H70       1.0  0.41045  0.82443  0.45321  1.0000
  C   C191      1.0  0.48010  0.82150  0.59537  1.0000
  C   C192      1.0  0.48947  0.78115  0.59766  1.0000
  H   H71       1.0  0.48235  0.83688  0.53656  1.0000
  H   H72       1.0  0.49849  0.76719  0.54047  1.0000
  C   C193      1.0  0.57749  0.19725  0.41113  1.0000
  C   C194      1.0  0.56897  0.23783  0.40708  1.0000
  H   H73       1.0  0.57502  0.25492  0.46212  1.0000
  H   H74       1.0  0.58966  0.18616  0.46864  1.0000
  C   C195      1.0  0.51691  0.17448  0.61410  1.0000
  C   C196      1.0  0.51038  0.21537  0.60827  1.0000
  H   H75       1.0  0.51340  0.15712  0.55852  1.0000
  H   H76       1.0  0.50211  0.22762  0.54850  1.0000
  C   C197      1.0  0.80913  0.58165  0.40105  1.0000
  C   C198      1.0  0.76857  0.57326  0.40138  1.0000
  H   H77       1.0  0.75271  0.57948  0.45800  1.0000
  H   H78       1.0  0.82135  0.59384  0.45749  1.0000
  C   C199      1.0  0.81872  0.52430  0.59930  1.0000
  C   C200      1.0  0.77833  0.51551  0.60073  1.0000
  H   H79       1.0  0.83421  0.52181  0.54081  1.0000
  H   H80       1.0  0.76446  0.50664  0.54326  1.0000
  C   C201      1.0  0.18816  0.45658  0.40951  1.0000
  C   C202      1.0  0.22883  0.46439  0.40678  1.0000
  H   H81       1.0  0.24194  0.47623  0.46255  1.0000
  H   H82       1.0  0.17303  0.46281  0.46714  1.0000
  C   C203      1.0  0.19382  0.39155  0.61267  1.0000
  C   C204      1.0  0.23385  0.40184  0.60791  1.0000
  H   H83       1.0  0.17961  0.38143  0.55670  1.0000
  H   H84       1.0  0.24864  0.39917  0.54850  1.0000
  C   C205      1.0  0.14200  0.04712  0.33389  1.0000
  C   C206      1.0  0.14033  0.07271  0.40903  1.0000
  C   C207      1.0  0.11736  0.10779  0.40592  1.0000
  C   C208      1.0  0.09579  0.11767  0.32779  1.0000
  N   N65       1.0  0.11425  0.12971  0.48217  1.0000
  C   C209      1.0  0.13212  0.12019  0.56056  1.0000
  C   C210      1.0  0.15486  0.08534  0.56372  1.0000
  N   N66       1.0  0.15781  0.06309  0.48826  1.0000
  C   C211      1.0  0.12781  0.14355  0.63810  1.0000
  C   C212      1.0  0.17310  0.07415  0.64455  1.0000
  H   H85       1.0  0.11122  0.16859  0.63634  1.0000
  H   H86       1.0  0.18923  0.04893  0.64746  1.0000
  C   C213      1.0  0.86006  0.96370  0.33675  1.0000
  C   C214      1.0  0.86135  0.93866  0.41306  1.0000
  C   C215      1.0  0.88422  0.90347  0.41148  1.0000
  C   C216      1.0  0.90617  0.89299  0.33439  1.0000
  N   N67       1.0  0.88707  0.88191  0.48825  1.0000
  C   C217      1.0  0.86905  0.89180  0.56606  1.0000
  C   C218      1.0  0.84643  0.92673  0.56802  1.0000
  N   N68       1.0  0.84371  0.94869  0.49190  1.0000
  C   C219      1.0  0.87320  0.86868  0.64402  1.0000
  C   C220      1.0  0.82812  0.93814  0.64858  1.0000
  H   H87       1.0  0.88972  0.84358  0.64283  1.0000
  H   H88       1.0  0.81205  0.96330  0.65092  1.0000
  C   C221      1.0  0.95953  0.14579  0.33073  1.0000
  C   C222      1.0  0.93423  0.14452  0.40637  1.0000
  C   C223      1.0  0.89875  0.12195  0.40367  1.0000
  C   C224      1.0  0.88809  0.10037  0.32587  1.0000
  N   N69       1.0  0.87693  0.11914  0.48000  1.0000
  C   C225      1.0  0.88688  0.13695  0.55827  1.0000
  C   C226      1.0  0.92208  0.15930  0.56122  1.0000
  N   N70       1.0  0.94428  0.16196  0.48559  1.0000
  C   C227      1.0  0.86350  0.13290  0.63577  1.0000
  C   C228      1.0  0.93356  0.17742  0.64215  1.0000
  H   H89       1.0  0.83819  0.11658  0.63397  1.0000
  H   H90       1.0  0.95895  0.19326  0.64514  1.0000
  C   C229      1.0  0.04220  0.86471  0.34005  1.0000
  C   C230      1.0  0.06777  0.86578  0.41513  1.0000
  C   C231      1.0  0.10312  0.88853  0.41216  1.0000
  C   C232      1.0  0.11320  0.91044  0.33445  1.0000
  N   N71       1.0  0.12508  0.89125  0.48831  1.0000
  C   C233      1.0  0.11538  0.87319  0.56648  1.0000
  C   C234      1.0  0.08027  0.85069  0.56959  1.0000
  N   N72       1.0  0.05795  0.84813  0.49423  1.0000
  C   C235      1.0  0.13882  0.87720  0.64389  1.0000
  C   C236      1.0  0.06888  0.83239  0.65038  1.0000
  H   H91       1.0  0.16405  0.89364  0.64209  1.0000
  H   H92       1.0  0.04345  0.81649  0.65336  1.0000
  C   C237      1.0  0.40736  0.59171  0.42591  1.0000
  C   C238      1.0  0.38454  0.55705  0.42730  1.0000
  H   H93       1.0  0.38629  0.53901  0.48231  1.0000
  H   H94       1.0  0.42501  0.59772  0.47994  1.0000
  C   C239      1.0  0.35269  0.62405  0.62763  1.0000
  C   C240      1.0  0.32981  0.58936  0.62922  1.0000
  H   H95       1.0  0.35529  0.63986  0.56944  1.0000
  H   H96       1.0  0.31586  0.58005  0.57218  1.0000
  C   C241      1.0  0.59592  0.41738  0.42345  1.0000
  C   C242      1.0  0.61901  0.45184  0.42075  1.0000
  H   H97       1.0  0.61816  0.47046  0.47488  1.0000
  H   H98       1.0  0.57902  0.41218  0.47912  1.0000
  C   C243      1.0  0.64467  0.37624  0.62577  1.0000
  C   C244      1.0  0.66762  0.41084  0.62218  1.0000
  H   H99       1.0  0.64133  0.35923  0.56957  1.0000
  H   H100      1.0  0.68094  0.41890  0.56341  1.0000
  C   C245      1.0  0.58870  0.60081  0.42136  1.0000
  C   C246      1.0  0.55440  0.62367  0.41851  1.0000
  H   H101      1.0  0.53586  0.62263  0.47263  1.0000
  H   H102      1.0  0.59382  0.58389  0.47708  1.0000
  C   C247      1.0  0.62939  0.64922  0.62314  1.0000
  C   C248      1.0  0.59502  0.67202  0.61946  1.0000
  H   H103      1.0  0.64632  0.64595  0.56696  1.0000
  H   H104      1.0  0.58705  0.68534  0.56066  1.0000
  C   C249      1.0  0.41218  0.40746  0.42177  1.0000
  C   C250      1.0  0.44670  0.38489  0.42150  1.0000
  H   H105      1.0  0.46473  0.38634  0.47645  1.0000
  H   H106      1.0  0.40646  0.42459  0.47685  1.0000
  C   C251      1.0  0.37704  0.35421  0.62352  1.0000
  C   C252      1.0  0.41166  0.33174  0.62331  1.0000
  H   H107      1.0  0.36077  0.35674  0.56614  1.0000
  H   H108      1.0  0.42052  0.31795  0.56577  1.0000
