data_image0
_chemical_formula_structural       C2NC2H3C5H2C2HCHNCH3C2NCH3C3H3C12H8C3NHNC3NHC2NHNC18H12C2HC5H3C7H3C4H2
_chemical_formula_sum              "C75 N8 H48"
_cell_length_a       32.2314
_cell_length_b       32.2314
_cell_length_c       14.589
_cell_angle_alpha    90
_cell_angle_beta     90
_cell_angle_gamma    120

_space_group_name_H-M_alt    "P 1"
_space_group_IT_number       1

loop_
  _space_group_symop_operation_xyz
  'x, y, z'

loop_
  _atom_site_type_symbol
  _atom_site_label
  _atom_site_symmetry_multiplicity
  _atom_site_fract_x
  _atom_site_fract_y
  _atom_site_fract_z
  _atom_site_occupancy
  C   C1        1.0  0.14971  0.57893  0.34791  1.0000
  C   C2        1.0  0.12134  0.54850  0.27495  1.0000
  N   N1        1.0  0.07264  0.52487  0.28209  1.0000
  C   C3        1.0  0.04789  0.52792  0.35464  1.0000
  C   C4        1.0  0.14132  0.53829  0.19215  1.0000
  H   H1        1.0  0.16680  0.52694  0.21182  1.0000
  H   H2        1.0  0.15926  0.57005  0.14907  1.0000
  H   H3        1.0  0.11321  0.50973  0.15104  1.0000
  C   C5        1.0  0.27653  0.62422  0.42807  1.0000
  C   C6        1.0  0.22612  0.59905  0.42452  1.0000
  C   C7        1.0  0.20119  0.60394  0.34913  1.0000
  C   C8        1.0  0.22901  0.63567  0.27808  1.0000
  C   C9        1.0  0.27953  0.65996  0.28052  1.0000
  H   H4        1.0  0.20764  0.57688  0.47802  1.0000
  H   H5        1.0  0.21269  0.64225  0.22444  1.0000
  C   C10       1.0  0.07429  0.55738  0.42957  1.0000
  C   C11       1.0  0.12484  0.58244  0.42502  1.0000
  H   H6        1.0  0.14390  0.60399  0.47893  1.0000
  C   C12       1.0  0.04957  0.56083  0.50641  1.0000
  H   H7        1.0  0.06803  0.58176  0.56133  1.0000
  N   N2        1.0  0.35525  0.68013  0.35952  1.0000
  C   C13       1.0  0.30412  0.65452  0.35551  1.0000
  H   H8        1.0  0.29296  0.62021  0.48445  1.0000
  H   H9        1.0  0.34824  0.73880  0.48036  1.0000
  H   H10       1.0  0.29850  0.68254  0.22793  1.0000
  C   C14       1.0  0.45589  0.57469  0.35626  1.0000
  C   C15       1.0  0.44908  0.53918  0.28994  1.0000
  N   N3        1.0  0.47499  0.51641  0.29668  1.0000
  C   C16       1.0  0.41311  0.52210  0.21522  1.0000
  H   H11       1.0  0.37877  0.51616  0.24092  1.0000
  H   H12       1.0  0.40727  0.48828  0.18653  1.0000
  H   H13       1.0  0.42534  0.54812  0.15966  1.0000
  C   C17       1.0  0.45527  0.88621  0.35946  1.0000
  C   C18       1.0  0.46061  0.91455  0.28027  1.0000
  C   C19       1.0  0.43781  0.89506  0.19023  1.0000
  H   H14       1.0  0.40027  0.86784  0.19953  1.0000
  H   H15       1.0  0.45641  0.87949  0.15441  1.0000
  H   H16       1.0  0.43900  0.92308  0.14626  1.0000
  C   C20       1.0  0.38022  0.65395  0.35882  1.0000
  C   C21       1.0  0.38095  0.73140  0.36048  1.0000
  C   C22       1.0  0.39856  0.64650  0.27648  1.0000
  C   C23       1.0  0.42446  0.62195  0.27606  1.0000
  C   C24       1.0  0.43024  0.60077  0.35658  1.0000
  C   C25       1.0  0.41100  0.60787  0.43877  1.0000
  C   C26       1.0  0.38738  0.63472  0.44024  1.0000
  C   C27       1.0  0.41478  0.75825  0.29182  1.0000
  C   C28       1.0  0.43987  0.80866  0.29308  1.0000
  C   C29       1.0  0.43025  0.83462  0.35978  1.0000
  C   C30       1.0  0.39631  0.80755  0.42869  1.0000
  C   C31       1.0  0.37263  0.75703  0.42972  1.0000
  H   H17       1.0  0.43981  0.62050  0.21582  1.0000
  H   H18       1.0  0.39378  0.65963  0.21606  1.0000
  H   H19       1.0  0.37509  0.63990  0.50132  1.0000
  H   H20       1.0  0.41404  0.59346  0.49918  1.0000
  H   H21       1.0  0.42224  0.74141  0.24067  1.0000
  H   H22       1.0  0.46595  0.82622  0.24495  1.0000
  H   H23       1.0  0.38809  0.82451  0.47878  1.0000
  H   H24       1.0  0.47250  0.89253  0.50096  1.0000
  C   C32       1.0  0.50746  0.52422  0.36333  1.0000
  C   C33       1.0  0.53314  0.49915  0.36533  1.0000
  C   C34       1.0  0.55231  0.44331  0.29673  1.0000
  N   N4        1.0  0.52799  0.46766  0.29818  1.0000
  H   H25       1.0  0.54576  0.42000  0.24386  1.0000
  N   N5        1.0  0.48566  0.96323  0.28691  1.0000
  C   C35       1.0  0.50611  0.98810  0.36483  1.0000
  C   C36       1.0  0.53179  0.03884  0.36604  1.0000
  C   C37       1.0  0.56488  0.11356  0.28605  1.0000
  N   N6        1.0  0.54014  0.06491  0.28812  1.0000
  H   H26       1.0  0.57035  0.12933  0.22318  1.0000
  C   C38       1.0  0.99711  0.50244  0.35693  1.0000
  C   C39       1.0  0.92199  0.44882  0.28588  1.0000
  N   N7        1.0  0.97067  0.47364  0.28667  1.0000
  H   H27       1.0  0.90559  0.42734  0.23060  1.0000
  N   N8        1.0  0.68889  0.34795  0.36369  1.0000
  C   C40       1.0  0.66375  0.37375  0.36532  1.0000
  C   C41       1.0  0.66304  0.29684  0.36475  1.0000
  C   C42       1.0  0.73986  0.37376  0.36211  1.0000
  C   C43       1.0  0.76539  0.38957  0.27901  1.0000
  C   C44       1.0  0.81592  0.41527  0.27837  1.0000
  C   C45       1.0  0.84308  0.42550  0.36040  1.0000
  C   C46       1.0  0.81666  0.40900  0.44331  1.0000
  C   C47       1.0  0.76621  0.38435  0.44435  1.0000
  C   C48       1.0  0.64283  0.37815  0.44694  1.0000
  C   C49       1.0  0.61721  0.40305  0.44779  1.0000
  C   C50       1.0  0.61109  0.42385  0.36691  1.0000
  C   C51       1.0  0.63209  0.41895  0.28526  1.0000
  C   C52       1.0  0.65808  0.39448  0.28452  1.0000
  C   C53       1.0  0.63053  0.27074  0.29400  1.0000
  C   C54       1.0  0.60416  0.22025  0.29558  1.0000
  C   C55       1.0  0.61009  0.19321  0.36615  1.0000
  C   C56       1.0  0.64365  0.22023  0.43590  1.0000
  C   C57       1.0  0.66877  0.27068  0.43627  1.0000
  H   H28       1.0  0.60206  0.40492  0.50819  1.0000
  H   H29       1.0  0.64617  0.36312  0.50626  1.0000
  H   H30       1.0  0.67248  0.39138  0.22420  1.0000
  H   H31       1.0  0.62931  0.43389  0.22531  1.0000
  H   H32       1.0  0.74720  0.38261  0.21833  1.0000
  H   H33       1.0  0.83265  0.42712  0.21648  1.0000
  H   H34       1.0  0.62512  0.28856  0.24150  1.0000
  H   H35       1.0  0.57977  0.20360  0.24430  1.0000
  H   H36       1.0  0.65116  0.20363  0.48759  1.0000
  H   H37       1.0  0.69197  0.28820  0.48880  1.0000
  H   H38       1.0  0.74869  0.37373  0.50579  1.0000
  H   H39       1.0  0.83381  0.41406  0.50474  1.0000
  C   C58       1.0  0.51477  0.55802  0.43268  1.0000
  C   C59       1.0  0.48931  0.58310  0.42736  1.0000
  H   H40       1.0  0.49572  0.60839  0.47638  1.0000
  C   C60       1.0  0.58487  0.44910  0.36752  1.0000
  C   C61       1.0  0.59067  0.48151  0.43864  1.0000
  C   C62       1.0  0.56549  0.50701  0.43827  1.0000
  C   C63       1.0  0.57185  0.54008  0.50794  1.0000
  C   C64       1.0  0.54701  0.56559  0.50482  1.0000
  H   H41       1.0  0.59500  0.54621  0.56111  1.0000
  H   H42       1.0  0.55250  0.58959  0.55595  1.0000
  H   H43       1.0  0.61457  0.48768  0.49038  1.0000
  C   C65       1.0  0.50029  0.96191  0.44656  1.0000
  C   C66       1.0  0.47550  0.91134  0.44230  1.0000
  C   C67       1.0  0.58358  0.14121  0.36708  1.0000
  C   C68       1.0  0.57478  0.11431  0.44923  1.0000
  C   C69       1.0  0.55009  0.06366  0.44991  1.0000
  C   C70       1.0  0.54328  0.03729  0.53132  1.0000
  C   C71       1.0  0.51922  0.98694  0.52945  1.0000
  H   H44       1.0  0.55646  0.05457  0.59245  1.0000
  H   H45       1.0  0.51512  0.96868  0.58934  1.0000
  H   H46       1.0  0.58591  0.13158  0.51076  1.0000
  C   C72       1.0  0.89490  0.45155  0.35993  1.0000
  C   C73       1.0  0.92194  0.48150  0.43395  1.0000
  C   C74       1.0  0.97260  0.50668  0.43406  1.0000
  C   C75       1.0  0.99922  0.53584  0.50852  1.0000
  H   H47       1.0  0.98216  0.53911  0.56496  1.0000
  H   H48       1.0  0.90466  0.48608  0.48847  1.0000
