data_image0
_chemical_formula_structural       HC7H4NHC7H4NHC7H4NHCNCNCNC18H12C3O3CNCNCNC18H12C3O3C2HC3HC2H4NHC2HC3HC2H4NHC2HC3HC2H3NH
_chemical_formula_sum              "H60 C90 N12 O6"
_cell_length_a       44.1608
_cell_length_b       44.1602
_cell_length_c       15.07
_cell_angle_alpha    90
_cell_angle_beta     90
_cell_angle_gamma    120

_space_group_name_H-M_alt    "P 1"
_space_group_IT_number       1

loop_
  _space_group_symop_operation_xyz
  'x, y, z'

loop_
  _atom_site_type_symbol
  _atom_site_label
  _atom_site_symmetry_multiplicity
  _atom_site_fract_x
  _atom_site_fract_y
  _atom_site_fract_z
  _atom_site_occupancy
  H   H1        1.0  0.99503  0.52639  0.49937  1.0000
  C   C1        1.0  0.54760  0.45588  0.29363  1.0000
  C   C2        1.0  0.52672  0.45567  0.22260  1.0000
  C   C3        1.0  0.50597  0.47135  0.23124  1.0000
  C   C4        1.0  0.50493  0.48737  0.31180  1.0000
  C   C5        1.0  0.48289  0.50241  0.32383  1.0000
  C   C6        1.0  0.47166  0.51496  0.25177  1.0000
  C   C7        1.0  0.45107  0.53052  0.26559  1.0000
  H   H2        1.0  0.47943  0.51434  0.18831  1.0000
  H   H3        1.0  0.44460  0.54043  0.21216  1.0000
  H   H4        1.0  0.52629  0.44376  0.16399  1.0000
  H   H5        1.0  0.49056  0.46947  0.17861  1.0000
  N   N1        1.0  0.56528  0.43792  0.28603  1.0000
  H   H6        1.0  0.55381  0.41631  0.25160  1.0000
  C   C8        1.0  0.53833  0.09055  0.29359  1.0000
  C   C9        1.0  0.53853  0.06987  0.22257  1.0000
  C   C10       1.0  0.52282  0.03344  0.23120  1.0000
  C   C11       1.0  0.50679  0.01638  0.31176  1.0000
  C   C12       1.0  0.49173  0.97930  0.32380  1.0000
  C   C13       1.0  0.47913  0.95551  0.25176  1.0000
  C   C14       1.0  0.46358  0.91937  0.26559  1.0000
  H   H7        1.0  0.47980  0.96391  0.18827  1.0000
  H   H8        1.0  0.45372  0.90299  0.21214  1.0000
  H   H9        1.0  0.55044  0.08135  0.16394  1.0000
  H   H10       1.0  0.52468  0.01990  0.17858  1.0000
  N   N2        1.0  0.55630  0.12619  0.28602  1.0000
  H   H11       1.0  0.57791  0.13633  0.25162  1.0000
  C   C15       1.0  0.90363  0.44661  0.29371  1.0000
  C   C16       1.0  0.92429  0.46749  0.22266  1.0000
  C   C17       1.0  0.96072  0.48825  0.23127  1.0000
  C   C18       1.0  0.97779  0.48929  0.31182  1.0000
  C   C19       1.0  0.01488  0.51133  0.32382  1.0000
  C   C20       1.0  0.03865  0.52255  0.25174  1.0000
  C   C21       1.0  0.07480  0.54313  0.26553  1.0000
  H   H12       1.0  0.03024  0.51478  0.18829  1.0000
  H   H13       1.0  0.09117  0.54959  0.21209  1.0000
  H   H14       1.0  0.91280  0.46792  0.16406  1.0000
  H   H15       1.0  0.97425  0.50365  0.17864  1.0000
  N   N3        1.0  0.86800  0.42893  0.28613  1.0000
  H   H16       1.0  0.85785  0.44040  0.25174  1.0000
  C   C22       1.0  0.29438  0.65196  0.33377  1.0000
  N   N4        1.0  0.30741  0.62986  0.33365  1.0000
  C   C23       1.0  0.34223  0.64124  0.33376  1.0000
  N   N5        1.0  0.36433  0.67638  0.33366  1.0000
  C   C24       1.0  0.35295  0.69981  0.33379  1.0000
  N   N6        1.0  0.31781  0.68677  0.33366  1.0000
  C   C25       1.0  0.35505  0.61742  0.33249  1.0000
  C   C26       1.0  0.33223  0.58099  0.32187  1.0000
  C   C27       1.0  0.34516  0.55768  0.31813  1.0000
  C   C28       1.0  0.38133  0.56994  0.32676  1.0000
  C   C29       1.0  0.40418  0.60625  0.33758  1.0000
  C   C30       1.0  0.39129  0.62955  0.34025  1.0000
  C   C31       1.0  0.25774  0.63914  0.33249  1.0000
  C   C32       1.0  0.23363  0.60290  0.34025  1.0000
  C   C33       1.0  0.19743  0.59000  0.33760  1.0000
  C   C34       1.0  0.18398  0.61286  0.32673  1.0000
  C   C35       1.0  0.20788  0.64902  0.31809  1.0000
  C   C36       1.0  0.24413  0.66196  0.32186  1.0000
  C   C37       1.0  0.37676  0.73645  0.33252  1.0000
  C   C38       1.0  0.36463  0.76056  0.34034  1.0000
  C   C39       1.0  0.38793  0.79675  0.33770  1.0000
  C   C40       1.0  0.42423  0.81021  0.32679  1.0000
  C   C41       1.0  0.43650  0.78631  0.31809  1.0000
  C   C42       1.0  0.41319  0.75006  0.32186  1.0000
  H   H17       1.0  0.18107  0.56352  0.34087  1.0000
  H   H18       1.0  0.24203  0.58524  0.34734  1.0000
  H   H19       1.0  0.19913  0.66636  0.30971  1.0000
  H   H20       1.0  0.26044  0.68834  0.31521  1.0000
  H   H21       1.0  0.33857  0.75215  0.34750  1.0000
  H   H22       1.0  0.37781  0.81312  0.34107  1.0000
  H   H23       1.0  0.42325  0.73375  0.31514  1.0000
  H   H24       1.0  0.46259  0.79507  0.30967  1.0000
  H   H25       1.0  0.40894  0.65561  0.34735  1.0000
  H   H26       1.0  0.43067  0.61637  0.34092  1.0000
  H   H27       1.0  0.32782  0.53159  0.30978  1.0000
  H   H28       1.0  0.30585  0.57093  0.31524  1.0000
  C   C43       1.0  0.14743  0.59944  0.31941  1.0000
  C   C44       1.0  0.44737  0.84677  0.31949  1.0000
  C   C45       1.0  0.39474  0.54680  0.31949  1.0000
  O   O1        1.0  0.37837  0.51920  0.26360  1.0000
  O   O2        1.0  0.47495  0.85800  0.26352  1.0000
  O   O3        1.0  0.13620  0.61581  0.26351  1.0000
  C   C46       1.0  0.69867  0.34349  0.33585  1.0000
  N   N7        1.0  0.68554  0.36552  0.33563  1.0000
  C   C47       1.0  0.65070  0.35401  0.33582  1.0000
  N   N8        1.0  0.62868  0.31885  0.33559  1.0000
  C   C48       1.0  0.64019  0.29553  0.33580  1.0000
  N   N9        1.0  0.67534  0.30866  0.33563  1.0000
  C   C49       1.0  0.63774  0.37769  0.33369  1.0000
  C   C50       1.0  0.66030  0.41403  0.32055  1.0000
  C   C51       1.0  0.64714  0.43716  0.31645  1.0000
  C   C52       1.0  0.61090  0.42465  0.32438  1.0000
  C   C53       1.0  0.58843  0.38852  0.33949  1.0000
  C   C54       1.0  0.60158  0.36548  0.34383  1.0000
  C   C55       1.0  0.73531  0.35646  0.33379  1.0000
  C   C56       1.0  0.75926  0.39261  0.34401  1.0000
  C   C57       1.0  0.79545  0.40576  0.33974  1.0000
  C   C58       1.0  0.80911  0.38330  0.32455  1.0000
  C   C59       1.0  0.78538  0.34706  0.31655  1.0000
  C   C60       1.0  0.74909  0.33390  0.32062  1.0000
  C   C61       1.0  0.61651  0.25889  0.33369  1.0000
  C   C62       1.0  0.62872  0.23494  0.34386  1.0000
  C   C63       1.0  0.60568  0.19874  0.33954  1.0000
  C   C64       1.0  0.56955  0.18508  0.32437  1.0000
  C   C65       1.0  0.55705  0.20881  0.31642  1.0000
  C   C66       1.0  0.58018  0.24510  0.32050  1.0000
  H   H29       1.0  0.81171  0.43200  0.34937  1.0000
  H   H30       1.0  0.75072  0.40997  0.35515  1.0000
  H   H31       1.0  0.79426  0.32994  0.30578  1.0000
  H   H32       1.0  0.73288  0.30756  0.31274  1.0000
  H   H33       1.0  0.65461  0.24347  0.35504  1.0000
  H   H34       1.0  0.61566  0.18249  0.34921  1.0000
  H   H35       1.0  0.57005  0.26132  0.31267  1.0000
  H   H36       1.0  0.53105  0.19994  0.30567  1.0000
  H   H37       1.0  0.58422  0.33959  0.35499  1.0000
  H   H38       1.0  0.56220  0.37854  0.34916  1.0000
  H   H39       1.0  0.66427  0.46315  0.30576  1.0000
  H   H40       1.0  0.68664  0.42415  0.31275  1.0000
  C   C67       1.0  0.84581  0.39688  0.32121  1.0000
  C   C68       1.0  0.54644  0.14839  0.32107  1.0000
  C   C69       1.0  0.59733  0.44777  0.32109  1.0000
  O   O4        1.0  0.61762  0.48078  0.35184  1.0000
  O   O5        1.0  0.51342  0.13567  0.35177  1.0000
  O   O6        1.0  0.85853  0.37659  0.35191  1.0000
  C   C70       1.0  0.52487  0.48635  0.38485  1.0000
  C   C71       1.0  0.54601  0.47093  0.37494  1.0000
  H   H41       1.0  0.55934  0.46943  0.42871  1.0000
  C   C72       1.0  0.44102  0.53421  0.35198  1.0000
  C   C73       1.0  0.45317  0.52306  0.42450  1.0000
  C   C74       1.0  0.47374  0.50717  0.41135  1.0000
  H   H42       1.0  0.44669  0.52638  0.48756  1.0000
  C   C75       1.0  0.48600  0.49537  0.48899  1.0000
  C   C76       1.0  0.52316  0.50127  0.47211  1.0000
  H   H43       1.0  0.46784  0.46749  0.49938  1.0000
  H   H44       1.0  0.48647  0.50921  0.54962  1.0000
  H   H45       1.0  0.53006  0.48958  0.52681  1.0000
  H   H46       1.0  0.54196  0.52933  0.47153  1.0000
  N   N10       1.0  0.42318  0.55163  0.36642  1.0000
  H   H47       1.0  0.43123  0.56824  0.41557  1.0000
  C   C77       1.0  0.50785  0.03736  0.38482  1.0000
  C   C78       1.0  0.52330  0.07392  0.37492  1.0000
  H   H48       1.0  0.52480  0.08874  0.42868  1.0000
  C   C79       1.0  0.45995  0.90563  0.35196  1.0000
  C   C80       1.0  0.47109  0.92893  0.42448  1.0000
  C   C81       1.0  0.48697  0.96539  0.41132  1.0000
  H   H49       1.0  0.46780  0.91914  0.48754  1.0000
  C   C82       1.0  0.49879  0.98946  0.48896  1.0000
  C   C83       1.0  0.49292  0.02073  0.47208  1.0000
  H   H50       1.0  0.52667  0.99916  0.49934  1.0000
  H   H51       1.0  0.48495  0.97609  0.54959  1.0000
  H   H52       1.0  0.50462  0.03932  0.52679  1.0000
  H   H53       1.0  0.46487  0.01150  0.47151  1.0000
  N   N11       1.0  0.44255  0.87037  0.36643  1.0000
  H   H54       1.0  0.42595  0.86181  0.41565  1.0000
  C   C84       1.0  0.95684  0.46935  0.38488  1.0000
  C   C85       1.0  0.92029  0.44821  0.37500  1.0000
  H   H55       1.0  0.90547  0.43488  0.42878  1.0000
  C   C86       1.0  0.08855  0.55317  0.35191  1.0000
  C   C87       1.0  0.06527  0.54104  0.42445  1.0000
  C   C88       1.0  0.02880  0.52048  0.41133  1.0000
  H   H56       1.0  0.07507  0.54751  0.48750  1.0000
  C   C89       1.0  0.00474  0.50822  0.48899  1.0000
  C   C90       1.0  0.97349  0.47107  0.47213  1.0000
  H   H57       1.0  0.01812  0.50776  0.54961  1.0000
  H   H58       1.0  0.95490  0.46417  0.52685  1.0000
  H   H59       1.0  0.98274  0.45226  0.47154  1.0000
  N   N12       1.0  0.12381  0.57100  0.36632  1.0000
  H   H60       1.0  0.13237  0.56296  0.41550  1.0000
