data_image0
_chemical_formula_structural       COCNCONHNC3O2HNC3O2HCNC2O2HCNC2O2HCNC2O2HCNC2O2HCNC2O2HCNC2O2HC24H15C24H15C24H15C24H15C24H15C24H15C3O2HCNC2O2HCNC2O2HNC3O2HNC3O2HNC3O2HNC3O2HNC3O2HNC3O2H
_chemical_formula_sum              "C198 O36 N18 H108"
_cell_length_a       61.3739
_cell_length_b       61.3739
_cell_length_c       14.9858
_cell_angle_alpha    90
_cell_angle_beta     90
_cell_angle_gamma    120

_space_group_name_H-M_alt    "P 1"
_space_group_IT_number       1

loop_
  _space_group_symop_operation_xyz
  'x, y, z'

loop_
  _atom_site_type_symbol
  _atom_site_label
  _atom_site_symmetry_multiplicity
  _atom_site_fract_x
  _atom_site_fract_y
  _atom_site_fract_z
  _atom_site_occupancy
  C   C1        1.0  0.01086  0.50472  0.24797  1.0000
  O   O1        1.0  0.00816  0.49381  0.10380  1.0000
  C   C2        1.0  0.01902  0.51015  0.16017  1.0000
  N   N1        1.0  0.01592  0.50761  0.40497  1.0000
  C   C3        1.0  0.02706  0.51337  0.32326  1.0000
  O   O2        1.0  0.02932  0.53189  0.13082  1.0000
  N   N2        1.0  0.98565  0.49170  0.26331  1.0000
  H   H1        1.0  0.03601  0.54569  0.16393  1.0000
  N   N3        1.0  0.50950  0.49419  0.26337  1.0000
  C   C4        1.0  0.49649  0.50640  0.24805  1.0000
  C   C5        1.0  0.48786  0.51396  0.32335  1.0000
  C   C6        1.0  0.49106  0.50913  0.16026  1.0000
  O   O3        1.0  0.50739  0.51459  0.10386  1.0000
  O   O4        1.0  0.46932  0.49771  0.13093  1.0000
  H   H2        1.0  0.45552  0.49061  0.16405  1.0000
  N   N4        1.0  0.50701  0.01556  0.26335  1.0000
  C   C7        1.0  0.49481  0.99036  0.24800  1.0000
  C   C8        1.0  0.48724  0.97415  0.32326  1.0000
  C   C9        1.0  0.49206  0.98220  0.16019  1.0000
  O   O5        1.0  0.48660  0.99308  0.10385  1.0000
  O   O6        1.0  0.50347  0.97188  0.13079  1.0000
  H   H3        1.0  0.51057  0.96517  0.16387  1.0000
  C   C10       1.0  0.28888  0.53167  0.33425  1.0000
  N   N5        1.0  0.25579  0.53629  0.27186  1.0000
  C   C11       1.0  0.27808  0.53702  0.25958  1.0000
  C   C12       1.0  0.29025  0.54633  0.17896  1.0000
  O   O7        1.0  0.30718  0.56826  0.17843  1.0000
  O   O8        1.0  0.27908  0.53885  0.10701  1.0000
  H   H4        1.0  0.26586  0.52370  0.09844  1.0000
  C   C13       1.0  0.46951  0.75746  0.33420  1.0000
  N   N6        1.0  0.46488  0.71975  0.27182  1.0000
  C   C14       1.0  0.46421  0.74135  0.25947  1.0000
  C   C15       1.0  0.45482  0.74414  0.17894  1.0000
  O   O9        1.0  0.43288  0.73911  0.17860  1.0000
  O   O10       1.0  0.46225  0.74042  0.10693  1.0000
  H   H5        1.0  0.47739  0.74234  0.09823  1.0000
  C   C16       1.0  0.24374  0.71234  0.33426  1.0000
  N   N7        1.0  0.28146  0.74546  0.27193  1.0000
  C   C17       1.0  0.25991  0.72315  0.25965  1.0000
  C   C18       1.0  0.25714  0.71094  0.17909  1.0000
  O   O11       1.0  0.26254  0.69429  0.17924  1.0000
  O   O12       1.0  0.26058  0.72213  0.10733  1.0000
  H   H6        1.0  0.25824  0.73511  0.09891  1.0000
  C   C19       1.0  0.71405  0.47121  0.32166  1.0000
  N   N8        1.0  0.75198  0.47661  0.25876  1.0000
  C   C20       1.0  0.73096  0.47848  0.24845  1.0000
  C   C21       1.0  0.72688  0.48659  0.16678  1.0000
  O   O13       1.0  0.73459  0.48159  0.09901  1.0000
  O   O14       1.0  0.72345  0.50473  0.16014  1.0000
  H   H7        1.0  0.72011  0.51195  0.20517  1.0000
  C   C22       1.0  0.52979  0.24296  0.32173  1.0000
  N   N9        1.0  0.52450  0.27553  0.25864  1.0000
  C   C23       1.0  0.52257  0.25262  0.24847  1.0000
  C   C24       1.0  0.51448  0.24045  0.16676  1.0000
  O   O15       1.0  0.51941  0.25305  0.09871  1.0000
  O   O16       1.0  0.49648  0.21878  0.16016  1.0000
  H   H8        1.0  0.48928  0.20824  0.20522  1.0000
  C   C25       1.0  0.75822  0.28705  0.32164  1.0000
  N   N10       1.0  0.72564  0.24916  0.25874  1.0000
  C   C26       1.0  0.74855  0.27015  0.24843  1.0000
  C   C27       1.0  0.76067  0.27423  0.16662  1.0000
  O   O17       1.0  0.74803  0.26656  0.09867  1.0000
  O   O18       1.0  0.78232  0.27787  0.15985  1.0000
  H   H9        1.0  0.79289  0.28121  0.20482  1.0000
  C   C28       1.0  0.17506  0.60724  0.33608  1.0000
  C   C29       1.0  0.14862  0.59401  0.32650  1.0000
  C   C30       1.0  0.13468  0.56733  0.32453  1.0000
  C   C31       1.0  0.14799  0.55400  0.33011  1.0000
  C   C32       1.0  0.17441  0.56672  0.33985  1.0000
  C   C33       1.0  0.18759  0.59328  0.34210  1.0000
  C   C34       1.0  0.10780  0.55418  0.32166  1.0000
  C   C35       1.0  0.09391  0.56128  0.37812  1.0000
  C   C36       1.0  0.06744  0.54789  0.37803  1.0000
  C   C37       1.0  0.05386  0.52708  0.32068  1.0000
  C   C38       1.0  0.06770  0.51985  0.26457  1.0000
  C   C39       1.0  0.09419  0.53316  0.26506  1.0000
  C   C40       1.0  0.18925  0.63397  0.34122  1.0000
  C   C41       1.0  0.18840  0.64927  0.27234  1.0000
  C   C42       1.0  0.20554  0.67537  0.27124  1.0000
  C   C43       1.0  0.22380  0.68690  0.33928  1.0000
  C   C44       1.0  0.22349  0.67173  0.41092  1.0000
  C   C45       1.0  0.20658  0.64571  0.41169  1.0000
  C   C46       1.0  0.18801  0.55367  0.34894  1.0000
  C   C47       1.0  0.20483  0.55931  0.42110  1.0000
  C   C48       1.0  0.22158  0.55001  0.42338  1.0000
  C   C49       1.0  0.22201  0.53462  0.35388  1.0000
  C   C50       1.0  0.20467  0.52844  0.28287  1.0000
  C   C51       1.0  0.18765  0.53753  0.28094  1.0000
  H   H10       1.0  0.20512  0.68575  0.21853  1.0000
  H   H11       1.0  0.17647  0.64133  0.21937  1.0000
  H   H12       1.0  0.23667  0.67917  0.46063  1.0000
  H   H13       1.0  0.20778  0.63522  0.46255  1.0000
  H   H14       1.0  0.20597  0.57137  0.47048  1.0000
  H   H15       1.0  0.23474  0.55622  0.47320  1.0000
  H   H16       1.0  0.17639  0.53387  0.22613  1.0000
  H   H17       1.0  0.20501  0.51806  0.22996  1.0000
  H   H18       1.0  0.10347  0.52736  0.22325  1.0000
  H   H19       1.0  0.05864  0.50440  0.22428  1.0000
  H   H20       1.0  0.05816  0.55362  0.42020  1.0000
  H   H21       1.0  0.10293  0.57594  0.42184  1.0000
  H   H22       1.0  0.13939  0.60401  0.32251  1.0000
  H   H23       1.0  0.20683  0.60269  0.34712  1.0000
  H   H24       1.0  0.13828  0.53474  0.33151  1.0000
  C   C52       1.0  0.39396  0.56805  0.33614  1.0000
  C   C53       1.0  0.40720  0.55486  0.32657  1.0000
  C   C54       1.0  0.43388  0.56760  0.32459  1.0000
  C   C55       1.0  0.44720  0.59424  0.33014  1.0000
  C   C56       1.0  0.43447  0.60793  0.33986  1.0000
  C   C57       1.0  0.40792  0.59455  0.34212  1.0000
  C   C58       1.0  0.44704  0.55388  0.32173  1.0000
  C   C59       1.0  0.43995  0.53290  0.37822  1.0000
  C   C60       1.0  0.45334  0.51983  0.37814  1.0000
  C   C61       1.0  0.47415  0.52706  0.32078  1.0000
  C   C62       1.0  0.48137  0.54812  0.26468  1.0000
  C   C63       1.0  0.46806  0.56129  0.26516  1.0000
  C   C64       1.0  0.36724  0.55551  0.34132  1.0000
  C   C65       1.0  0.35192  0.53931  0.27253  1.0000
  C   C66       1.0  0.32582  0.53034  0.27144  1.0000
  C   C67       1.0  0.31430  0.53712  0.33937  1.0000
  C   C68       1.0  0.32947  0.55200  0.41097  1.0000
  C   C69       1.0  0.35550  0.56112  0.41172  1.0000
  C   C70       1.0  0.44750  0.63458  0.34898  1.0000
  C   C71       1.0  0.44188  0.64576  0.42119  1.0000
  C   C72       1.0  0.45112  0.67181  0.42333  1.0000
  C   C73       1.0  0.46652  0.68762  0.35385  1.0000
  C   C74       1.0  0.47274  0.67649  0.28290  1.0000
  C   C75       1.0  0.46361  0.65036  0.28092  1.0000
  H   H25       1.0  0.31544  0.51954  0.21875  1.0000
  H   H26       1.0  0.35986  0.53531  0.21960  1.0000
  H   H27       1.0  0.32204  0.55779  0.46055  1.0000
  H   H28       1.0  0.36599  0.57285  0.46252  1.0000
  H   H29       1.0  0.42979  0.63484  0.47049  1.0000
  H   H30       1.0  0.44492  0.67875  0.47318  1.0000
  H   H31       1.0  0.46731  0.64277  0.22616  1.0000
  H   H32       1.0  0.48310  0.68719  0.22996  1.0000
  H   H33       1.0  0.47387  0.57638  0.22334  1.0000
  H   H34       1.0  0.49683  0.55451  0.22438  1.0000
  H   H35       1.0  0.44761  0.50482  0.42031  1.0000
  H   H36       1.0  0.42529  0.52726  0.42193  1.0000
  H   H37       1.0  0.39721  0.53563  0.32260  1.0000
  H   H38       1.0  0.39850  0.60437  0.34713  1.0000
  H   H39       1.0  0.46646  0.60380  0.33154  1.0000
  C   C76       1.0  0.43311  0.82615  0.33602  1.0000
  C   C77       1.0  0.44631  0.85259  0.32642  1.0000
  C   C78       1.0  0.43358  0.86653  0.32447  1.0000
  C   C79       1.0  0.40694  0.85321  0.33006  1.0000
  C   C80       1.0  0.39324  0.82679  0.33979  1.0000
  C   C81       1.0  0.40662  0.81362  0.34204  1.0000
  C   C82       1.0  0.44731  0.89341  0.32160  1.0000
  C   C83       1.0  0.46830  0.90730  0.37806  1.0000
  C   C84       1.0  0.48137  0.93376  0.37802  1.0000
  C   C85       1.0  0.47415  0.94735  0.32066  1.0000
  C   C86       1.0  0.45308  0.93351  0.26454  1.0000
  C   C87       1.0  0.43990  0.90702  0.26504  1.0000
  C   C88       1.0  0.44565  0.81196  0.34118  1.0000
  C   C89       1.0  0.46184  0.81284  0.27239  1.0000
  C   C90       1.0  0.47081  0.79571  0.27129  1.0000
  C   C91       1.0  0.46407  0.77744  0.33931  1.0000
  C   C92       1.0  0.44918  0.77772  0.41087  1.0000
  C   C93       1.0  0.44005  0.79463  0.41164  1.0000
  C   C94       1.0  0.36659  0.81319  0.34890  1.0000
  C   C95       1.0  0.35539  0.79637  0.42106  1.0000
  C   C96       1.0  0.32934  0.77962  0.42333  1.0000
  C   C97       1.0  0.31354  0.77922  0.35381  1.0000
  C   C98       1.0  0.32469  0.79659  0.28289  1.0000
  C   C99       1.0  0.35082  0.81355  0.28088  1.0000
  H   H40       1.0  0.48163  0.79615  0.21865  1.0000
  H   H41       1.0  0.46584  0.82479  0.21944  1.0000
  H   H42       1.0  0.44339  0.76451  0.46047  1.0000
  H   H43       1.0  0.42831  0.79338  0.46238  1.0000
  H   H44       1.0  0.36631  0.79517  0.47032  1.0000
  H   H45       1.0  0.32240  0.76644  0.47303  1.0000
  H   H46       1.0  0.35841  0.82488  0.22622  1.0000
  H   H47       1.0  0.31398  0.79629  0.23003  1.0000
  H   H48       1.0  0.42481  0.89775  0.22326  1.0000
  H   H49       1.0  0.44668  0.94257  0.22430  1.0000
  H   H50       1.0  0.49638  0.94304  0.42020  1.0000
  H   H51       1.0  0.47392  0.89827  0.42182  1.0000
  H   H52       1.0  0.46554  0.86182  0.32246  1.0000
  H   H53       1.0  0.39679  0.79438  0.34705  1.0000
  H   H54       1.0  0.39739  0.86293  0.33147  1.0000
  C   C100      1.0  0.82650  0.39211  0.32989  1.0000
  C   C101      1.0  0.85293  0.40531  0.33941  1.0000
  C   C102      1.0  0.86682  0.43197  0.34381  1.0000
  C   C103      1.0  0.85343  0.44526  0.34097  1.0000
  C   C104      1.0  0.82700  0.43256  0.33154  1.0000
  C   C105      1.0  0.81389  0.40603  0.32663  1.0000
  C   C106      1.0  0.89372  0.44514  0.34654  1.0000
  C   C107      1.0  0.90762  0.43830  0.28910  1.0000
  C   C108      1.0  0.93408  0.45167  0.28923  1.0000
  C   C109      1.0  0.94768  0.47224  0.34757  1.0000
  C   C110      1.0  0.93383  0.47924  0.40455  1.0000
  C   C111      1.0  0.90734  0.46593  0.40409  1.0000
  C   C112      1.0  0.81241  0.36545  0.32186  1.0000
  C   C113      1.0  0.81265  0.34964  0.38996  1.0000
  C   C114      1.0  0.79557  0.32353  0.38804  1.0000
  C   C115      1.0  0.77825  0.31243  0.31698  1.0000
  C   C116      1.0  0.77868  0.32828  0.24759  1.0000
  C   C117      1.0  0.79551  0.35432  0.24986  1.0000
  C   C118      1.0  0.81328  0.44557  0.32580  1.0000
  C   C119      1.0  0.79601  0.44020  0.25528  1.0000
  C   C120      1.0  0.77917  0.44939  0.25653  1.0000
  C   C121      1.0  0.77885  0.46409  0.32871  1.0000
  C   C122      1.0  0.79713  0.47069  0.39662  1.0000
  C   C123      1.0  0.81419  0.46164  0.39510  1.0000
  H   H55       1.0  0.79527  0.31278  0.44073  1.0000
  H   H56       1.0  0.82407  0.35719  0.44443  1.0000
  H   H57       1.0  0.76553  0.32137  0.19775  1.0000
  H   H58       1.0  0.79444  0.36526  0.20038  1.0000
  H   H59       1.0  0.79472  0.42850  0.20430  1.0000
  H   H60       1.0  0.76596  0.44371  0.20693  1.0000
  H   H61       1.0  0.82606  0.46544  0.44816  1.0000
  H   H62       1.0  0.79753  0.48136  0.44973  1.0000
  H   H63       1.0  0.89807  0.47157  0.44666  1.0000
  H   H64       1.0  0.94288  0.49455  0.44550  1.0000
  H   H65       1.0  0.94335  0.44610  0.24637  1.0000
  H   H66       1.0  0.89861  0.42384  0.24458  1.0000
  H   H67       1.0  0.86218  0.39531  0.34149  1.0000
  H   H68       1.0  0.79465  0.39658  0.32177  1.0000
  H   H69       1.0  0.86310  0.46452  0.34143  1.0000
  C   C124      1.0  0.60903  0.43456  0.32980  1.0000
  C   C125      1.0  0.59584  0.44780  0.33939  1.0000
  C   C126      1.0  0.56919  0.43505  0.34379  1.0000
  C   C127      1.0  0.55588  0.40837  0.34097  1.0000
  C   C128      1.0  0.56858  0.39463  0.33145  1.0000
  C   C129      1.0  0.59511  0.40804  0.32651  1.0000
  C   C130      1.0  0.55602  0.44878  0.34653  1.0000
  C   C131      1.0  0.56288  0.46954  0.28911  1.0000
  C   C132      1.0  0.54952  0.48263  0.28928  1.0000
  C   C133      1.0  0.52895  0.47567  0.34761  1.0000
  C   C134      1.0  0.52194  0.45481  0.40459  1.0000
  C   C135      1.0  0.53524  0.44163  0.40410  1.0000
  C   C136      1.0  0.63569  0.44712  0.32178  1.0000
  C   C137      1.0  0.65151  0.46314  0.38994  1.0000
  C   C138      1.0  0.67761  0.47214  0.38805  1.0000
  C   C139      1.0  0.68869  0.46590  0.31698  1.0000
  C   C140      1.0  0.67284  0.45050  0.24757  1.0000
  C   C141      1.0  0.64681  0.44136  0.24973  1.0000
  C   C142      1.0  0.55556  0.36790  0.32571  1.0000
  C   C143      1.0  0.56088  0.35600  0.25507  1.0000
  C   C144      1.0  0.55170  0.32997  0.25632  1.0000
  C   C145      1.0  0.53704  0.31495  0.32857  1.0000
  C   C146      1.0  0.53046  0.32663  0.39657  1.0000
  C   C147      1.0  0.53955  0.35275  0.39513  1.0000
  H   H70       1.0  0.68837  0.48258  0.44077  1.0000
  H   H71       1.0  0.64396  0.46701  0.44443  1.0000
  H   H72       1.0  0.67975  0.44431  0.19759  1.0000
  H   H73       1.0  0.63587  0.42939  0.20019  1.0000
  H   H74       1.0  0.57256  0.36641  0.20405  1.0000
  H   H75       1.0  0.55735  0.32243  0.20665  1.0000
  H   H76       1.0  0.53578  0.36083  0.44824  1.0000
  H   H77       1.0  0.51986  0.31638  0.44981  1.0000
  H   H78       1.0  0.52960  0.42673  0.44667  1.0000
  H   H79       1.0  0.50664  0.44856  0.44555  1.0000
  H   H80       1.0  0.55509  0.49748  0.24640  1.0000
  H   H81       1.0  0.57733  0.47497  0.24458  1.0000
  H   H82       1.0  0.60585  0.46705  0.34146  1.0000
  H   H83       1.0  0.60455  0.39824  0.32160  1.0000
  H   H84       1.0  0.53662  0.39878  0.34139  1.0000
  C   C148      1.0  0.56664  0.17473  0.32994  1.0000
  C   C149      1.0  0.55340  0.14830  0.33950  1.0000
  C   C150      1.0  0.56614  0.13439  0.34387  1.0000
  C   C151      1.0  0.59282  0.14776  0.34103  1.0000
  C   C152      1.0  0.60657  0.17420  0.33154  1.0000
  C   C153      1.0  0.59316  0.18732  0.32665  1.0000
  C   C154      1.0  0.55241  0.10750  0.34661  1.0000
  C   C155      1.0  0.53165  0.09359  0.28918  1.0000
  C   C156      1.0  0.51855  0.06713  0.28937  1.0000
  C   C157      1.0  0.52552  0.05353  0.34763  1.0000
  C   C158      1.0  0.54638  0.06737  0.40463  1.0000
  C   C159      1.0  0.55956  0.09386  0.40413  1.0000
  C   C160      1.0  0.55408  0.18883  0.32198  1.0000
  C   C161      1.0  0.53802  0.18858  0.39006  1.0000
  C   C162      1.0  0.52898  0.20565  0.38817  1.0000
  C   C163      1.0  0.53522  0.22298  0.31714  1.0000
  C   C164      1.0  0.55067  0.22259  0.24781  1.0000
  C   C165      1.0  0.55988  0.20577  0.25005  1.0000
  C   C166      1.0  0.63330  0.18789  0.32581  1.0000
  C   C167      1.0  0.64520  0.20516  0.25531  1.0000
  C   C168      1.0  0.67125  0.22198  0.25650  1.0000
  C   C169      1.0  0.68625  0.22231  0.32874  1.0000
  C   C170      1.0  0.67457  0.20403  0.39665  1.0000
  C   C171      1.0  0.64845  0.18699  0.39514  1.0000
  H   H85       1.0  0.51849  0.20592  0.44080  1.0000
  H   H86       1.0  0.53413  0.17714  0.44448  1.0000
  H   H87       1.0  0.55683  0.23569  0.19781  1.0000
  H   H88       1.0  0.57183  0.20679  0.20046  1.0000
  H   H89       1.0  0.63480  0.20648  0.20437  1.0000
  H   H90       1.0  0.67877  0.23522  0.20700  1.0000
  H   H91       1.0  0.64037  0.17511  0.44816  1.0000
  H   H92       1.0  0.68483  0.20362  0.44977  1.0000
  H   H93       1.0  0.57447  0.10312  0.44669  1.0000
  H   H94       1.0  0.55265  0.05832  0.44550  1.0000
  H   H95       1.0  0.50370  0.05787  0.24651  1.0000
  H   H96       1.0  0.52620  0.10261  0.24474  1.0000
  H   H97       1.0  0.53414  0.13906  0.34157  1.0000
  H   H98       1.0  0.60297  0.20656  0.32179  1.0000
  H   H99       1.0  0.60241  0.13808  0.34142  1.0000
  C   C172      1.0  0.97450  0.48596  0.34501  1.0000
  C   C173      1.0  0.99071  0.49459  0.42029  1.0000
  C   C174      1.0  0.98258  0.48908  0.50810  1.0000
  O   O19       1.0  0.99342  0.50538  0.56459  1.0000
  O   O20       1.0  0.97236  0.46732  0.53723  1.0000
  H   H100      1.0  0.96568  0.45354  0.50398  1.0000
  C   C175      1.0  0.51524  0.48878  0.34507  1.0000
  N   N11       1.0  0.49361  0.50857  0.40506  1.0000
  C   C176      1.0  0.50663  0.49638  0.42035  1.0000
  C   C177      1.0  0.51213  0.49374  0.50821  1.0000
  O   O21       1.0  0.49566  0.48795  0.56421  1.0000
  O   O22       1.0  0.53390  0.50534  0.53718  1.0000
  H   H101      1.0  0.54767  0.51253  0.50388  1.0000
  C   C178      1.0  0.51242  0.02671  0.34507  1.0000
  N   N12       1.0  0.49262  0.98528  0.40499  1.0000
  C   C179      1.0  0.50482  0.01050  0.42034  1.0000
  C   C180      1.0  0.50746  0.01867  0.50812  1.0000
  O   O23       1.0  0.51305  0.00778  0.56402  1.0000
  O   O24       1.0  0.49574  0.02864  0.53759  1.0000
  H   H102      1.0  0.48859  0.03529  0.50452  1.0000
  N   N13       1.0  0.27506  0.52450  0.41065  1.0000
  C   C181      1.0  0.25211  0.52244  0.42159  1.0000
  C   C182      1.0  0.24215  0.52944  0.34861  1.0000
  C   C183      1.0  0.24022  0.51443  0.50382  1.0000
  O   O25       1.0  0.25308  0.51999  0.57137  1.0000
  O   O26       1.0  0.21864  0.49634  0.51126  1.0000
  H   H103      1.0  0.20805  0.48887  0.46655  1.0000
  N   N14       1.0  0.47666  0.75080  0.41061  1.0000
  C   C184      1.0  0.47872  0.72991  0.42157  1.0000
  C   C185      1.0  0.47171  0.71295  0.34858  1.0000
  C   C186      1.0  0.48671  0.72600  0.50376  1.0000
  O   O27       1.0  0.48151  0.73363  0.57132  1.0000
  O   O28       1.0  0.50487  0.72262  0.51124  1.0000
  H   H104      1.0  0.51224  0.71934  0.46661  1.0000
  N   N15       1.0  0.25038  0.72616  0.41063  1.0000
  C   C187      1.0  0.27124  0.74913  0.42160  1.0000
  C   C188      1.0  0.28818  0.75914  0.34860  1.0000
  C   C189      1.0  0.27513  0.76102  0.50380  1.0000
  O   O29       1.0  0.26751  0.74819  0.57135  1.0000
  O   O30       1.0  0.27853  0.78257  0.51132  1.0000
  H   H105      1.0  0.28182  0.79323  0.46671  1.0000
  N   N16       1.0  0.72095  0.46426  0.39793  1.0000
  C   C190      1.0  0.74263  0.46370  0.40952  1.0000
  C   C191      1.0  0.75878  0.46937  0.33467  1.0000
  C   C192      1.0  0.74558  0.45422  0.48962  1.0000
  O   O31       1.0  0.74088  0.43238  0.48908  1.0000
  O   O32       1.0  0.74168  0.46131  0.56204  1.0000
  H   H106      1.0  0.74336  0.47633  0.57141  1.0000
  N   N17       1.0  0.53683  0.25687  0.39785  1.0000
  C   C193      1.0  0.53740  0.27912  0.40942  1.0000
  C   C194      1.0  0.53177  0.28960  0.33448  1.0000
  C   C195      1.0  0.54707  0.29163  0.48936  1.0000
  O   O33       1.0  0.56901  0.30852  0.48795  1.0000
  O   O34       1.0  0.53974  0.28064  0.56167  1.0000
  H   H107      1.0  0.52456  0.26753  0.57102  1.0000
  N   N18       1.0  0.74436  0.28018  0.39788  1.0000
  C   C196      1.0  0.72212  0.25851  0.40953  1.0000
  C   C197      1.0  0.71162  0.24235  0.33469  1.0000
  C   C198      1.0  0.70967  0.25560  0.48957  1.0000
  O   O35       1.0  0.69257  0.26035  0.48889  1.0000
  O   O36       1.0  0.72064  0.25950  0.56202  1.0000
  H   H108      1.0  0.73396  0.25778  0.57149  1.0000
