data_image0
_chemical_formula_structural       CNHCHCHC4NH4C6N2H6C6N2H6C8H4C8H4C8H4C8H4C8H4C8H4C3HNC2NH2C3HNC3NH3C3HNC3NH3C2HC2HC2H4C2HC2HC2H4C2HC2HC2H4C2HC2HC2H4C2HC2HC2H4C2HC2HC2H4
_chemical_formula_sum              "C120 N12 H90"
_cell_length_a       31.4955
_cell_length_b       31.4955
_cell_length_c       14.9169
_cell_angle_alpha    90
_cell_angle_beta     90
_cell_angle_gamma    120

_space_group_name_H-M_alt    "P 1"
_space_group_IT_number       1

loop_
  _space_group_symop_operation_xyz
  'x, y, z'

loop_
  _atom_site_type_symbol
  _atom_site_label
  _atom_site_symmetry_multiplicity
  _atom_site_fract_x
  _atom_site_fract_y
  _atom_site_fract_z
  _atom_site_occupancy
  C   C1        1.0  0.03107  0.51757  0.32727  1.0000
  N   N1        1.0  0.03663  0.59100  0.26064  1.0000
  H   H1        1.0  0.00501  0.57167  0.23175  1.0000
  C   C2        1.0  0.05853  0.56881  0.30417  1.0000
  H   H2        1.0  0.05456  0.62513  0.24262  1.0000
  C   C3        1.0  0.05862  0.49554  0.35632  1.0000
  H   H3        1.0  0.04096  0.45935  0.37423  1.0000
  C   C4        1.0  0.97728  0.48797  0.32725  1.0000
  C   C5        1.0  0.89819  0.40900  0.32198  1.0000
  C   C6        1.0  0.94982  0.43673  0.30412  1.0000
  C   C7        1.0  0.11015  0.59656  0.32208  1.0000
  N   N2        1.0  0.97180  0.41454  0.26080  1.0000
  H   H4        1.0  0.00329  0.43398  0.23159  1.0000
  H   H5        1.0  0.95365  0.38050  0.24233  1.0000
  H   H6        1.0  0.20688  0.63098  0.32930  1.0000
  H   H7        1.0  0.80146  0.37458  0.32922  1.0000
  C   C8        1.0  0.51897  0.49069  0.32731  1.0000
  C   C9        1.0  0.59794  0.49057  0.32208  1.0000
  C   C10       1.0  0.57020  0.51445  0.30420  1.0000
  C   C11       1.0  0.48937  0.51488  0.32735  1.0000
  C   C12       1.0  0.43815  0.49112  0.30417  1.0000
  C   C13       1.0  0.41042  0.51502  0.32203  1.0000
  N   N3        1.0  0.59238  0.55854  0.26067  1.0000
  N   N4        1.0  0.41598  0.44702  0.26067  1.0000
  H   H8        1.0  0.57311  0.57092  0.23191  1.0000
  H   H9        1.0  0.62653  0.57473  0.24272  1.0000
  H   H10       1.0  0.38188  0.43097  0.24250  1.0000
  H   H11       1.0  0.43530  0.43473  0.23178  1.0000
  H   H12       1.0  0.37601  0.57734  0.32927  1.0000
  H   H13       1.0  0.63234  0.42824  0.32930  1.0000
  C   C14       1.0  0.51629  0.02969  0.32733  1.0000
  C   C15       1.0  0.51638  0.10876  0.32210  1.0000
  C   C16       1.0  0.49251  0.05714  0.30420  1.0000
  C   C17       1.0  0.49211  0.97589  0.32733  1.0000
  C   C18       1.0  0.51590  0.94844  0.30420  1.0000
  C   C19       1.0  0.49201  0.89681  0.32202  1.0000
  N   N5        1.0  0.44838  0.03521  0.26079  1.0000
  N   N6        1.0  0.56007  0.97041  0.26091  1.0000
  H   H14       1.0  0.43633  0.00370  0.23160  1.0000
  H   H15       1.0  0.43232  0.05321  0.24242  1.0000
  H   H16       1.0  0.57597  0.95229  0.24233  1.0000
  H   H17       1.0  0.57202  0.00187  0.23160  1.0000
  H   H18       1.0  0.42970  0.80007  0.32924  1.0000
  H   H19       1.0  0.57869  0.20550  0.32929  1.0000
  C   C20       1.0  0.35778  0.48900  0.32379  1.0000
  C   C21       1.0  0.33040  0.47969  0.24421  1.0000
  C   C22       1.0  0.28118  0.46848  0.24677  1.0000
  C   C23       1.0  0.25790  0.46889  0.32824  1.0000
  C   C24       1.0  0.21184  0.46909  0.33168  1.0000
  C   C25       1.0  0.19079  0.47822  0.25511  1.0000
  C   C26       1.0  0.15277  0.48910  0.26250  1.0000
  C   C27       1.0  0.13464  0.49237  0.34718  1.0000
  H   H20       1.0  0.20529  0.48137  0.19277  1.0000
  H   H21       1.0  0.14227  0.49998  0.20599  1.0000
  H   H22       1.0  0.34714  0.48442  0.18326  1.0000
  H   H23       1.0  0.26398  0.46335  0.18658  1.0000
  C   C28       1.0  0.51802  0.87020  0.32381  1.0000
  C   C29       1.0  0.52734  0.85212  0.24423  1.0000
  C   C30       1.0  0.53854  0.81411  0.24681  1.0000
  C   C31       1.0  0.53812  0.79043  0.32828  1.0000
  C   C32       1.0  0.53790  0.74415  0.33172  1.0000
  C   C33       1.0  0.52878  0.71398  0.25515  1.0000
  C   C34       1.0  0.51788  0.66507  0.26253  1.0000
  C   C35       1.0  0.51460  0.64366  0.34722  1.0000
  H   H24       1.0  0.52564  0.72533  0.19281  1.0000
  H   H25       1.0  0.50701  0.64370  0.20603  1.0000
  H   H26       1.0  0.52261  0.86414  0.18328  1.0000
  H   H27       1.0  0.54368  0.80204  0.18662  1.0000
  C   C36       1.0  0.13675  0.64918  0.32377  1.0000
  C   C37       1.0  0.15482  0.67659  0.24422  1.0000
  C   C38       1.0  0.19284  0.72582  0.24676  1.0000
  C   C39       1.0  0.21654  0.74909  0.32821  1.0000
  C   C40       1.0  0.26282  0.79514  0.33162  1.0000
  C   C41       1.0  0.29297  0.81619  0.25504  1.0000
  C   C42       1.0  0.34189  0.85419  0.26241  1.0000
  C   C43       1.0  0.36334  0.87232  0.34706  1.0000
  H   H28       1.0  0.28160  0.80170  0.19271  1.0000
  H   H29       1.0  0.36325  0.86468  0.20589  1.0000
  H   H30       1.0  0.14279  0.65986  0.18328  1.0000
  H   H31       1.0  0.20489  0.74302  0.18657  1.0000
  C   C44       1.0  0.65057  0.51658  0.32383  1.0000
  C   C45       1.0  0.67795  0.52590  0.24424  1.0000
  C   C46       1.0  0.72717  0.53711  0.24678  1.0000
  C   C47       1.0  0.75044  0.53669  0.32824  1.0000
  C   C48       1.0  0.79650  0.53647  0.33165  1.0000
  C   C49       1.0  0.81754  0.52734  0.25507  1.0000
  C   C50       1.0  0.85555  0.51645  0.26243  1.0000
  C   C51       1.0  0.87369  0.51317  0.34710  1.0000
  H   H32       1.0  0.80303  0.52419  0.19273  1.0000
  H   H33       1.0  0.86604  0.50557  0.20591  1.0000
  H   H34       1.0  0.66120  0.52119  0.18330  1.0000
  H   H35       1.0  0.74437  0.54226  0.18659  1.0000
  C   C52       1.0  0.49035  0.13536  0.32381  1.0000
  C   C53       1.0  0.48102  0.15345  0.24427  1.0000
  C   C54       1.0  0.46981  0.19146  0.24683  1.0000
  C   C55       1.0  0.47024  0.21515  0.32830  1.0000
  C   C56       1.0  0.47045  0.26143  0.33174  1.0000
  C   C57       1.0  0.47956  0.29158  0.25517  1.0000
  C   C58       1.0  0.49045  0.34049  0.26255  1.0000
  C   C59       1.0  0.49374  0.36190  0.34723  1.0000
  H   H36       1.0  0.48269  0.28023  0.19283  1.0000
  H   H37       1.0  0.50132  0.36186  0.20604  1.0000
  H   H38       1.0  0.48573  0.14143  0.18331  1.0000
  H   H39       1.0  0.46466  0.20352  0.18665  1.0000
  C   C60       1.0  0.87157  0.35636  0.32377  1.0000
  C   C61       1.0  0.85350  0.32898  0.24419  1.0000
  C   C62       1.0  0.81548  0.27975  0.24677  1.0000
  C   C63       1.0  0.79181  0.25649  0.32825  1.0000
  C   C64       1.0  0.74553  0.21043  0.33168  1.0000
  C   C65       1.0  0.71536  0.18938  0.25512  1.0000
  C   C66       1.0  0.66645  0.15136  0.26251  1.0000
  C   C67       1.0  0.64505  0.13324  0.34720  1.0000
  H   H40       1.0  0.72671  0.20387  0.19278  1.0000
  H   H41       1.0  0.64508  0.14086  0.20601  1.0000
  H   H42       1.0  0.86551  0.34571  0.18324  1.0000
  H   H43       1.0  0.80341  0.26255  0.18659  1.0000
  C   C68       1.0  0.94972  0.51001  0.35613  1.0000
  C   C69       1.0  0.89810  0.48537  0.35344  1.0000
  C   C70       1.0  0.87156  0.43376  0.34047  1.0000
  H   H44       1.0  0.96739  0.54618  0.37421  1.0000
  N   N7        1.0  0.82126  0.40904  0.34417  1.0000
  C   C71       1.0  0.13679  0.57180  0.34057  1.0000
  C   C72       1.0  0.11025  0.52019  0.35356  1.0000
  N   N8        1.0  0.18708  0.59652  0.34424  1.0000
  H   H45       1.0  0.20555  0.58061  0.36078  1.0000
  H   H46       1.0  0.80279  0.42495  0.36068  1.0000
  C   C73       1.0  0.49693  0.44111  0.35639  1.0000
  C   C74       1.0  0.52155  0.41412  0.35359  1.0000
  C   C75       1.0  0.57317  0.43917  0.34059  1.0000
  H   H47       1.0  0.46074  0.42260  0.37431  1.0000
  N   N9        1.0  0.59788  0.41358  0.34426  1.0000
  C   C76       1.0  0.43518  0.56640  0.34057  1.0000
  C   C77       1.0  0.48679  0.59145  0.35358  1.0000
  C   C78       1.0  0.51142  0.56446  0.35640  1.0000
  N   N10       1.0  0.41047  0.59199  0.34425  1.0000
  H   H48       1.0  0.54761  0.58297  0.37433  1.0000
  H   H49       1.0  0.42638  0.62636  0.36080  1.0000
  H   H50       1.0  0.58197  0.37921  0.36079  1.0000
  C   C79       1.0  0.56587  0.05724  0.35635  1.0000
  C   C80       1.0  0.59284  0.10886  0.35357  1.0000
  C   C81       1.0  0.56777  0.13540  0.34057  1.0000
  H   H51       1.0  0.58440  0.03958  0.37427  1.0000
  N   N11       1.0  0.59336  0.18570  0.34421  1.0000
  C   C82       1.0  0.44061  0.87016  0.34048  1.0000
  C   C83       1.0  0.41554  0.89670  0.35348  1.0000
  C   C84       1.0  0.44249  0.94832  0.35617  1.0000
  N   N12       1.0  0.41503  0.81987  0.34413  1.0000
  H   H52       1.0  0.42399  0.96600  0.37420  1.0000
  H   H53       1.0  0.38065  0.80140  0.36066  1.0000
  H   H54       1.0  0.62773  0.20417  0.36075  1.0000
  C   C85       1.0  0.28482  0.47551  0.40909  1.0000
  C   C86       1.0  0.33380  0.48513  0.40605  1.0000
  H   H55       1.0  0.35391  0.49448  0.46409  1.0000
  C   C87       1.0  0.15273  0.48040  0.42379  1.0000
  C   C88       1.0  0.19014  0.46799  0.41635  1.0000
  H   H56       1.0  0.14082  0.48383  0.48579  1.0000
  C   C89       1.0  0.20875  0.45546  0.49777  1.0000
  C   C90       1.0  0.26532  0.48066  0.49691  1.0000
  H   H57       1.0  0.19347  0.41572  0.49849  1.0000
  H   H58       1.0  0.19710  0.46545  0.55947  1.0000
  H   H59       1.0  0.27631  0.46440  0.55042  1.0000
  H   H60       1.0  0.28105  0.51972  0.51156  1.0000
  C   C91       1.0  0.53150  0.81072  0.40913  1.0000
  C   C92       1.0  0.52189  0.85008  0.40607  1.0000
  H   H61       1.0  0.51253  0.86084  0.46411  1.0000
  C   C93       1.0  0.52657  0.67372  0.42383  1.0000
  C   C94       1.0  0.53899  0.72354  0.41639  1.0000
  H   H62       1.0  0.52313  0.65838  0.48582  1.0000
  C   C95       1.0  0.55152  0.75468  0.49781  1.0000
  C   C96       1.0  0.52633  0.78606  0.49695  1.0000
  H   H63       1.0  0.59126  0.77913  0.49854  1.0000
  H   H64       1.0  0.54152  0.73304  0.55952  1.0000
  H   H65       1.0  0.54260  0.81332  0.55046  1.0000
  H   H66       1.0  0.48728  0.76275  0.51159  1.0000
  C   C97       1.0  0.19627  0.72216  0.40906  1.0000
  C   C98       1.0  0.15692  0.67319  0.40602  1.0000
  H   H67       1.0  0.14618  0.65308  0.46406  1.0000
  C   C99       1.0  0.33327  0.85423  0.42369  1.0000
  C   C100      1.0  0.28344  0.81683  0.41628  1.0000
  H   H68       1.0  0.34862  0.86613  0.48568  1.0000
  C   C101      1.0  0.25232  0.79822  0.49773  1.0000
  C   C102      1.0  0.22095  0.74166  0.49687  1.0000
  H   H69       1.0  0.22787  0.81351  0.49850  1.0000
  H   H70       1.0  0.27398  0.80987  0.55942  1.0000
  H   H71       1.0  0.19370  0.73067  0.55040  1.0000
  H   H72       1.0  0.24427  0.72592  0.51148  1.0000
  C   C103      1.0  0.72353  0.53006  0.40910  1.0000
  C   C104      1.0  0.67456  0.52044  0.40608  1.0000
  H   H73       1.0  0.65445  0.51108  0.46412  1.0000
  C   C105      1.0  0.85562  0.52515  0.42373  1.0000
  C   C106      1.0  0.81821  0.53756  0.41631  1.0000
  H   H74       1.0  0.86753  0.52172  0.48572  1.0000
  C   C107      1.0  0.79961  0.55009  0.49774  1.0000
  C   C108      1.0  0.74304  0.52490  0.49691  1.0000
  H   H75       1.0  0.81489  0.58983  0.49847  1.0000
  H   H76       1.0  0.81126  0.54010  0.55944  1.0000
  H   H77       1.0  0.73206  0.54116  0.55043  1.0000
  H   H78       1.0  0.72731  0.48584  0.51155  1.0000
  C   C109      1.0  0.47690  0.19487  0.40913  1.0000
  C   C110      1.0  0.48652  0.15552  0.40606  1.0000
  H   H79       1.0  0.49588  0.14477  0.46410  1.0000
  C   C111      1.0  0.48179  0.33185  0.42385  1.0000
  C   C112      1.0  0.46938  0.28203  0.41641  1.0000
  H   H80       1.0  0.48524  0.34720  0.48585  1.0000
  C   C113      1.0  0.45687  0.25090  0.49784  1.0000
  C   C114      1.0  0.48208  0.21954  0.49695  1.0000
  H   H81       1.0  0.41713  0.22644  0.49860  1.0000
  H   H82       1.0  0.46688  0.27254  0.55955  1.0000
  H   H83       1.0  0.46583  0.19229  0.55048  1.0000
  H   H84       1.0  0.52113  0.24286  0.51156  1.0000
  C   C115      1.0  0.81210  0.28341  0.40909  1.0000
  C   C116      1.0  0.85147  0.33239  0.40603  1.0000
  H   H85       1.0  0.86222  0.35251  0.46406  1.0000
  C   C117      1.0  0.67511  0.15134  0.42381  1.0000
  C   C118      1.0  0.72493  0.18874  0.41636  1.0000
  H   H86       1.0  0.65977  0.13944  0.48581  1.0000
  C   C119      1.0  0.75607  0.20736  0.49778  1.0000
  C   C120      1.0  0.78744  0.26392  0.49691  1.0000
  H   H87       1.0  0.78053  0.19207  0.49852  1.0000
  H   H88       1.0  0.73443  0.19572  0.55949  1.0000
  H   H89       1.0  0.81470  0.27492  0.55042  1.0000
  H   H90       1.0  0.76413  0.27966  0.51155  1.0000
