data_image0
_chemical_formula_structural       C4NCOHNCOHCNCHNHCNCHNHCNCH2C6H3C6H3C4HC6HOHOHC4HC6HOHOHC4HC3HOHCNCHNHCNCHNHCNCH2C6H3C6H3C4HC6HOHOHC4HC6HOHOHC4HC3HOHCNCHNHCNCHNHCNCHNHC6H3C6H3C4HC6HOHOHC4HC6HOHOHC4HC6HOHOHCNCHNHCNCHNHCNCHNHC6H3C6H3C4HC6HOHOHC4HC6HOHOHC4HC6HOHOH
_chemical_formula_sum              "C192 N24 O24 H96"
_cell_length_a       44.1901
_cell_length_b       44.19
_cell_length_c       14.9628
_cell_angle_alpha    90
_cell_angle_beta     90
_cell_angle_gamma    120

_space_group_name_H-M_alt    "P 1"
_space_group_IT_number       1

loop_
  _space_group_symop_operation_xyz
  'x, y, z'

loop_
  _atom_site_type_symbol
  _atom_site_label
  _atom_site_symmetry_multiplicity
  _atom_site_fract_x
  _atom_site_fract_y
  _atom_site_fract_z
  _atom_site_occupancy
  C   C1        1.0  0.02032  0.25480  0.34997  1.0000
  C   C2        1.0  0.02032  0.28870  0.47962  1.0000
  C   C3        1.0  0.02032  0.75480  0.34997  1.0000
  C   C4        1.0  0.02032  0.78870  0.47962  1.0000
  N   N1        1.0  0.03846  0.24762  0.28830  1.0000
  C   C5        1.0  0.03898  0.28137  0.41438  1.0000
  O   O1        1.0  0.03738  0.31423  0.54181  1.0000
  H   H1        1.0  0.04132  0.30283  0.59341  1.0000
  N   N2        1.0  0.03846  0.74762  0.28830  1.0000
  C   C6        1.0  0.03898  0.78137  0.41438  1.0000
  O   O2        1.0  0.03739  0.81423  0.54180  1.0000
  H   H2        1.0  0.04132  0.80283  0.59341  1.0000
  C   C7        1.0  0.27122  0.19268  0.28492  1.0000
  N   N3        1.0  0.25424  0.21110  0.28819  1.0000
  C   C8        1.0  0.19939  0.26481  0.28186  1.0000
  H   H3        1.0  0.26491  0.17464  0.23516  1.0000
  N   N4        1.0  0.21773  0.24776  0.28660  1.0000
  H   H4        1.0  0.18147  0.25837  0.23173  1.0000
  C   C9        1.0  0.30431  0.06728  0.28180  1.0000
  N   N5        1.0  0.28599  0.03189  0.28658  1.0000
  C   C10       1.0  0.23251  0.42332  0.28497  1.0000
  H   H5        1.0  0.32226  0.07876  0.23173  1.0000
  N   N6        1.0  0.24949  0.45872  0.28821  1.0000
  H   H6        1.0  0.23881  0.41159  0.23517  1.0000
  C   C11       1.0  0.42986  0.19256  0.28448  1.0000
  N   N7        1.0  0.46526  0.21102  0.28830  1.0000
  C   C12       1.0  0.07386  0.26456  0.28448  1.0000
  H   H7        1.0  0.41829  0.17423  0.23528  1.0000
  H   H8        1.0  0.08543  0.25781  0.23527  1.0000
  C   C13       1.0  0.13136  0.31017  0.34219  1.0000
  C   C14       1.0  0.15036  0.34712  0.34535  1.0000
  C   C15       1.0  0.18730  0.36605  0.34418  1.0000
  C   C16       1.0  0.20529  0.34713  0.34172  1.0000
  C   C17       1.0  0.18721  0.31018  0.33973  1.0000
  C   C18       1.0  0.15025  0.29213  0.33849  1.0000
  H   H9        1.0  0.23207  0.36051  0.34271  1.0000
  H   H10       1.0  0.13689  0.26535  0.33991  1.0000
  H   H11       1.0  0.13702  0.36056  0.34624  1.0000
  C   C19       1.0  0.37236  0.18067  0.34221  1.0000
  C   C20       1.0  0.35347  0.14373  0.33862  1.0000
  C   C21       1.0  0.31651  0.12483  0.33972  1.0000
  C   C22       1.0  0.29844  0.14371  0.34165  1.0000
  C   C23       1.0  0.31643  0.18062  0.34415  1.0000
  C   C24       1.0  0.35337  0.19863  0.34539  1.0000
  H   H12       1.0  0.27165  0.13031  0.34263  1.0000
  H   H13       1.0  0.36671  0.22541  0.34619  1.0000
  H   H14       1.0  0.36684  0.13032  0.33988  1.0000
  C   C25       1.0  0.29779  0.19920  0.34737  1.0000
  C   C26       1.0  0.26088  0.23603  0.35058  1.0000
  C   C27       1.0  0.28686  0.24354  0.41647  1.0000
  C   C28       1.0  0.30522  0.22494  0.41326  1.0000
  H   H15       1.0  0.32394  0.22978  0.46030  1.0000
  C   C29       1.0  0.24247  0.25453  0.34974  1.0000
  C   C30       1.0  0.20584  0.29161  0.34342  1.0000
  C   C31       1.0  0.23131  0.29911  0.41015  1.0000
  C   C32       1.0  0.24983  0.28072  0.41487  1.0000
  C   C33       1.0  0.27512  0.28755  0.48179  1.0000
  C   C34       1.0  0.29354  0.26907  0.48257  1.0000
  H   H16       1.0  0.23600  0.31792  0.45681  1.0000
  O   O3        1.0  0.28293  0.31261  0.54494  1.0000
  H   H17       1.0  0.26691  0.30088  0.59519  1.0000
  O   O4        1.0  0.31838  0.27703  0.54645  1.0000
  H   H18       1.0  0.30641  0.26130  0.59704  1.0000
  C   C35       1.0  0.29788  0.08763  0.34340  1.0000
  C   C36       1.0  0.26126  0.01392  0.34974  1.0000
  C   C37       1.0  0.25389  0.03276  0.41487  1.0000
  C   C38       1.0  0.27242  0.06966  0.41016  1.0000
  H   H19       1.0  0.26772  0.08378  0.45680  1.0000
  C   C39       1.0  0.24285  0.47702  0.35060  1.0000
  C   C40       1.0  0.20594  0.40327  0.34740  1.0000
  C   C41       1.0  0.19851  0.42159  0.41329  1.0000
  C   C42       1.0  0.21686  0.45854  0.41650  1.0000
  C   C43       1.0  0.21019  0.47739  0.48259  1.0000
  C   C44       1.0  0.22861  0.01430  0.48181  1.0000
  H   H20       1.0  0.17978  0.40770  0.46033  1.0000
  O   O5        1.0  0.18536  0.46051  0.54649  1.0000
  H   H21       1.0  0.19733  0.45676  0.59708  1.0000
  O   O6        1.0  0.22080  0.03155  0.54495  1.0000
  H   H22       1.0  0.23682  0.03584  0.59519  1.0000
  C   C45       1.0  0.40962  0.19939  0.34557  1.0000
  C   C46       1.0  0.48341  0.23635  0.34997  1.0000
  C   C47       1.0  0.46475  0.24425  0.41438  1.0000
  C   C48       1.0  0.42781  0.22555  0.41066  1.0000
  H   H23       1.0  0.41384  0.23062  0.45692  1.0000
  C   C49       1.0  0.09410  0.29163  0.34556  1.0000
  C   C50       1.0  0.07591  0.29959  0.41067  1.0000
  C   C51       1.0  0.48341  0.27025  0.47962  1.0000
  H   H24       1.0  0.08988  0.31864  0.45691  1.0000
  O   O7        1.0  0.46634  0.27871  0.54180  1.0000
  H   H25       1.0  0.46240  0.26337  0.59340  1.0000
  C   C52       1.0  0.27122  0.69268  0.28493  1.0000
  N   N8        1.0  0.25424  0.71110  0.28819  1.0000
  C   C53       1.0  0.19939  0.76481  0.28186  1.0000
  H   H26       1.0  0.26491  0.67464  0.23517  1.0000
  N   N9        1.0  0.21773  0.74776  0.28660  1.0000
  H   H27       1.0  0.18147  0.75837  0.23173  1.0000
  C   C54       1.0  0.30431  0.56728  0.28181  1.0000
  N   N10       1.0  0.28599  0.53189  0.28658  1.0000
  C   C55       1.0  0.23251  0.92332  0.28497  1.0000
  H   H28       1.0  0.32226  0.57876  0.23173  1.0000
  N   N11       1.0  0.24948  0.95872  0.28821  1.0000
  H   H29       1.0  0.23881  0.91159  0.23517  1.0000
  C   C56       1.0  0.42986  0.69256  0.28448  1.0000
  N   N12       1.0  0.46526  0.71102  0.28831  1.0000
  C   C57       1.0  0.07386  0.76456  0.28448  1.0000
  H   H30       1.0  0.41829  0.67423  0.23529  1.0000
  H   H31       1.0  0.08543  0.75781  0.23527  1.0000
  C   C58       1.0  0.13136  0.81017  0.34219  1.0000
  C   C59       1.0  0.15036  0.84713  0.34535  1.0000
  C   C60       1.0  0.18730  0.86605  0.34418  1.0000
  C   C61       1.0  0.20529  0.84713  0.34172  1.0000
  C   C62       1.0  0.18721  0.81018  0.33973  1.0000
  C   C63       1.0  0.15025  0.79213  0.33849  1.0000
  H   H32       1.0  0.23207  0.86051  0.34271  1.0000
  H   H33       1.0  0.13689  0.76535  0.33992  1.0000
  H   H34       1.0  0.13702  0.86056  0.34624  1.0000
  C   C64       1.0  0.37236  0.68067  0.34221  1.0000
  C   C65       1.0  0.35347  0.64373  0.33862  1.0000
  C   C66       1.0  0.31651  0.62483  0.33972  1.0000
  C   C67       1.0  0.29843  0.64370  0.34165  1.0000
  C   C68       1.0  0.31643  0.68062  0.34415  1.0000
  C   C69       1.0  0.35337  0.69863  0.34539  1.0000
  H   H35       1.0  0.27165  0.63031  0.34264  1.0000
  H   H36       1.0  0.36671  0.72541  0.34619  1.0000
  H   H37       1.0  0.36684  0.63033  0.33988  1.0000
  C   C70       1.0  0.29779  0.69920  0.34737  1.0000
  C   C71       1.0  0.26088  0.73604  0.35058  1.0000
  C   C72       1.0  0.28687  0.74354  0.41647  1.0000
  C   C73       1.0  0.30522  0.72494  0.41326  1.0000
  H   H38       1.0  0.32394  0.72978  0.46030  1.0000
  C   C74       1.0  0.24247  0.75453  0.34974  1.0000
  C   C75       1.0  0.20584  0.79161  0.34342  1.0000
  C   C76       1.0  0.23131  0.79911  0.41015  1.0000
  C   C77       1.0  0.24983  0.78073  0.41487  1.0000
  C   C78       1.0  0.27512  0.78755  0.48179  1.0000
  C   C79       1.0  0.29354  0.76907  0.48257  1.0000
  H   H39       1.0  0.23600  0.81792  0.45681  1.0000
  O   O8        1.0  0.28293  0.81261  0.54494  1.0000
  H   H40       1.0  0.26692  0.80088  0.59519  1.0000
  O   O9        1.0  0.31838  0.77703  0.54645  1.0000
  H   H41       1.0  0.30641  0.76131  0.59704  1.0000
  C   C80       1.0  0.29788  0.58763  0.34340  1.0000
  C   C81       1.0  0.26125  0.51392  0.34974  1.0000
  C   C82       1.0  0.25389  0.53276  0.41487  1.0000
  C   C83       1.0  0.27241  0.56966  0.41016  1.0000
  H   H42       1.0  0.26772  0.58379  0.45680  1.0000
  C   C84       1.0  0.24285  0.97702  0.35060  1.0000
  C   C85       1.0  0.20594  0.90327  0.34740  1.0000
  C   C86       1.0  0.19851  0.92159  0.41329  1.0000
  C   C87       1.0  0.21687  0.95854  0.41650  1.0000
  C   C88       1.0  0.21019  0.97740  0.48259  1.0000
  C   C89       1.0  0.22861  0.51430  0.48181  1.0000
  H   H43       1.0  0.17979  0.90771  0.46033  1.0000
  O   O10       1.0  0.18535  0.96051  0.54649  1.0000
  H   H44       1.0  0.19733  0.95676  0.59708  1.0000
  O   O11       1.0  0.22080  0.53155  0.54496  1.0000
  H   H45       1.0  0.23682  0.53584  0.59519  1.0000
  C   C90       1.0  0.40962  0.69939  0.34557  1.0000
  C   C91       1.0  0.48341  0.73635  0.34997  1.0000
  C   C92       1.0  0.46475  0.74425  0.41438  1.0000
  C   C93       1.0  0.42781  0.72555  0.41066  1.0000
  H   H46       1.0  0.41384  0.73062  0.45691  1.0000
  C   C94       1.0  0.09410  0.79163  0.34556  1.0000
  C   C95       1.0  0.07591  0.79959  0.41067  1.0000
  C   C96       1.0  0.48341  0.77025  0.47961  1.0000
  H   H47       1.0  0.08988  0.81864  0.45690  1.0000
  O   O12       1.0  0.46634  0.77871  0.54179  1.0000
  H   H48       1.0  0.46240  0.76337  0.59340  1.0000
  C   C97       1.0  0.77122  0.19268  0.28492  1.0000
  N   N13       1.0  0.75424  0.21110  0.28819  1.0000
  C   C98       1.0  0.69939  0.26481  0.28186  1.0000
  H   H49       1.0  0.76491  0.17464  0.23516  1.0000
  N   N14       1.0  0.71773  0.24776  0.28660  1.0000
  H   H50       1.0  0.68147  0.25837  0.23173  1.0000
  C   C99       1.0  0.80431  0.06728  0.28180  1.0000
  N   N15       1.0  0.78599  0.03189  0.28658  1.0000
  C   C100      1.0  0.73251  0.42332  0.28497  1.0000
  H   H51       1.0  0.82225  0.07876  0.23173  1.0000
  N   N16       1.0  0.74949  0.45872  0.28821  1.0000
  H   H52       1.0  0.73881  0.41159  0.23517  1.0000
  C   C101      1.0  0.92986  0.19256  0.28448  1.0000
  N   N17       1.0  0.96526  0.21102  0.28830  1.0000
  C   C102      1.0  0.57386  0.26456  0.28448  1.0000
  H   H53       1.0  0.91829  0.17423  0.23528  1.0000
  N   N18       1.0  0.53846  0.24762  0.28830  1.0000
  H   H54       1.0  0.58543  0.25781  0.23527  1.0000
  C   C103      1.0  0.63136  0.31017  0.34219  1.0000
  C   C104      1.0  0.65036  0.34712  0.34535  1.0000
  C   C105      1.0  0.68730  0.36605  0.34418  1.0000
  C   C106      1.0  0.70529  0.34713  0.34172  1.0000
  C   C107      1.0  0.68721  0.31018  0.33973  1.0000
  C   C108      1.0  0.65025  0.29213  0.33849  1.0000
  H   H55       1.0  0.73207  0.36051  0.34271  1.0000
  H   H56       1.0  0.63688  0.26535  0.33991  1.0000
  H   H57       1.0  0.63701  0.36056  0.34624  1.0000
  C   C109      1.0  0.87236  0.18067  0.34221  1.0000
  C   C110      1.0  0.85347  0.14373  0.33862  1.0000
  C   C111      1.0  0.81651  0.12483  0.33972  1.0000
  C   C112      1.0  0.79843  0.14371  0.34165  1.0000
  C   C113      1.0  0.81642  0.18062  0.34415  1.0000
  C   C114      1.0  0.85337  0.19863  0.34539  1.0000
  H   H58       1.0  0.77165  0.13031  0.34263  1.0000
  H   H59       1.0  0.86671  0.22541  0.34619  1.0000
  H   H60       1.0  0.86683  0.13032  0.33988  1.0000
  C   C115      1.0  0.79779  0.19920  0.34737  1.0000
  C   C116      1.0  0.76088  0.23603  0.35058  1.0000
  C   C117      1.0  0.78687  0.24354  0.41647  1.0000
  C   C118      1.0  0.80522  0.22494  0.41326  1.0000
  H   H61       1.0  0.82394  0.22978  0.46030  1.0000
  C   C119      1.0  0.74247  0.25453  0.34974  1.0000
  C   C120      1.0  0.70584  0.29161  0.34342  1.0000
  C   C121      1.0  0.73131  0.29911  0.41015  1.0000
  C   C122      1.0  0.74983  0.28072  0.41487  1.0000
  C   C123      1.0  0.77512  0.28755  0.48179  1.0000
  C   C124      1.0  0.79354  0.26907  0.48257  1.0000
  H   H62       1.0  0.73600  0.31792  0.45681  1.0000
  O   O13       1.0  0.78293  0.31261  0.54494  1.0000
  H   H63       1.0  0.76691  0.30088  0.59519  1.0000
  O   O14       1.0  0.81838  0.27703  0.54645  1.0000
  H   H64       1.0  0.80641  0.26130  0.59704  1.0000
  C   C125      1.0  0.79788  0.08763  0.34340  1.0000
  C   C126      1.0  0.76125  0.01392  0.34974  1.0000
  C   C127      1.0  0.75389  0.03276  0.41487  1.0000
  C   C128      1.0  0.77241  0.06966  0.41016  1.0000
  H   H65       1.0  0.76772  0.08378  0.45680  1.0000
  C   C129      1.0  0.74285  0.47702  0.35060  1.0000
  C   C130      1.0  0.70594  0.40327  0.34740  1.0000
  C   C131      1.0  0.69851  0.42159  0.41329  1.0000
  C   C132      1.0  0.71686  0.45854  0.41650  1.0000
  C   C133      1.0  0.71019  0.47739  0.48259  1.0000
  C   C134      1.0  0.72861  0.01430  0.48181  1.0000
  H   H66       1.0  0.67978  0.40770  0.46033  1.0000
  O   O15       1.0  0.68536  0.46051  0.54649  1.0000
  H   H67       1.0  0.69733  0.45676  0.59708  1.0000
  O   O16       1.0  0.72080  0.03155  0.54495  1.0000
  H   H68       1.0  0.73682  0.03584  0.59519  1.0000
  C   C135      1.0  0.90962  0.19939  0.34557  1.0000
  C   C136      1.0  0.98341  0.23635  0.34997  1.0000
  C   C137      1.0  0.96475  0.24425  0.41438  1.0000
  C   C138      1.0  0.92781  0.22555  0.41066  1.0000
  H   H69       1.0  0.91384  0.23062  0.45692  1.0000
  C   C139      1.0  0.52032  0.25480  0.34997  1.0000
  C   C140      1.0  0.59410  0.29163  0.34556  1.0000
  C   C141      1.0  0.57591  0.29959  0.41067  1.0000
  C   C142      1.0  0.53898  0.28137  0.41438  1.0000
  C   C143      1.0  0.52032  0.28870  0.47962  1.0000
  C   C144      1.0  0.98341  0.27025  0.47962  1.0000
  H   H70       1.0  0.58988  0.31864  0.45691  1.0000
  O   O17       1.0  0.53738  0.31423  0.54181  1.0000
  H   H71       1.0  0.54132  0.30283  0.59341  1.0000
  O   O18       1.0  0.96634  0.27871  0.54180  1.0000
  H   H72       1.0  0.96240  0.26337  0.59340  1.0000
  C   C145      1.0  0.77122  0.69268  0.28493  1.0000
  N   N19       1.0  0.75424  0.71110  0.28819  1.0000
  C   C146      1.0  0.69939  0.76481  0.28186  1.0000
  H   H73       1.0  0.76490  0.67464  0.23517  1.0000
  N   N20       1.0  0.71773  0.74776  0.28660  1.0000
  H   H74       1.0  0.68147  0.75837  0.23173  1.0000
  C   C147      1.0  0.80431  0.56728  0.28181  1.0000
  N   N21       1.0  0.78599  0.53189  0.28658  1.0000
  C   C148      1.0  0.73251  0.92332  0.28497  1.0000
  H   H75       1.0  0.82225  0.57876  0.23173  1.0000
  N   N22       1.0  0.74949  0.95872  0.28821  1.0000
  H   H76       1.0  0.73881  0.91159  0.23517  1.0000
  C   C149      1.0  0.92986  0.69256  0.28448  1.0000
  N   N23       1.0  0.96526  0.71102  0.28831  1.0000
  C   C150      1.0  0.57386  0.76456  0.28448  1.0000
  H   H77       1.0  0.91828  0.67423  0.23529  1.0000
  N   N24       1.0  0.53846  0.74762  0.28830  1.0000
  H   H78       1.0  0.58543  0.75781  0.23527  1.0000
  C   C151      1.0  0.63136  0.81017  0.34219  1.0000
  C   C152      1.0  0.65036  0.84713  0.34535  1.0000
  C   C153      1.0  0.68730  0.86605  0.34418  1.0000
  C   C154      1.0  0.70529  0.84713  0.34172  1.0000
  C   C155      1.0  0.68721  0.81018  0.33973  1.0000
  C   C156      1.0  0.65025  0.79213  0.33849  1.0000
  H   H79       1.0  0.73207  0.86051  0.34271  1.0000
  H   H80       1.0  0.63688  0.76535  0.33992  1.0000
  H   H81       1.0  0.63702  0.86056  0.34624  1.0000
  C   C157      1.0  0.87236  0.68067  0.34221  1.0000
  C   C158      1.0  0.85347  0.64373  0.33862  1.0000
  C   C159      1.0  0.81651  0.62483  0.33972  1.0000
  C   C160      1.0  0.79843  0.64370  0.34165  1.0000
  C   C161      1.0  0.81643  0.68062  0.34415  1.0000
  C   C162      1.0  0.85337  0.69863  0.34539  1.0000
  H   H82       1.0  0.77165  0.63031  0.34264  1.0000
  H   H83       1.0  0.86671  0.72541  0.34619  1.0000
  H   H84       1.0  0.86684  0.63033  0.33988  1.0000
  C   C163      1.0  0.79779  0.69920  0.34737  1.0000
  C   C164      1.0  0.76088  0.73604  0.35058  1.0000
  C   C165      1.0  0.78687  0.74354  0.41647  1.0000
  C   C166      1.0  0.80522  0.72494  0.41326  1.0000
  H   H85       1.0  0.82394  0.72978  0.46030  1.0000
  C   C167      1.0  0.74247  0.75453  0.34974  1.0000
  C   C168      1.0  0.70584  0.79161  0.34342  1.0000
  C   C169      1.0  0.73131  0.79911  0.41015  1.0000
  C   C170      1.0  0.74983  0.78073  0.41487  1.0000
  C   C171      1.0  0.77512  0.78755  0.48179  1.0000
  C   C172      1.0  0.79354  0.76907  0.48257  1.0000
  H   H86       1.0  0.73600  0.81792  0.45681  1.0000
  O   O19       1.0  0.78293  0.81261  0.54494  1.0000
  H   H87       1.0  0.76692  0.80088  0.59519  1.0000
  O   O20       1.0  0.81838  0.77703  0.54645  1.0000
  H   H88       1.0  0.80641  0.76131  0.59704  1.0000
  C   C173      1.0  0.79788  0.58763  0.34340  1.0000
  C   C174      1.0  0.76125  0.51392  0.34974  1.0000
  C   C175      1.0  0.75389  0.53276  0.41487  1.0000
  C   C176      1.0  0.77241  0.56966  0.41016  1.0000
  H   H89       1.0  0.76772  0.58379  0.45680  1.0000
  C   C177      1.0  0.74285  0.97702  0.35060  1.0000
  C   C178      1.0  0.70594  0.90327  0.34740  1.0000
  C   C179      1.0  0.69851  0.92159  0.41329  1.0000
  C   C180      1.0  0.71686  0.95854  0.41650  1.0000
  C   C181      1.0  0.71019  0.97740  0.48259  1.0000
  C   C182      1.0  0.72861  0.51430  0.48181  1.0000
  H   H90       1.0  0.67979  0.90771  0.46033  1.0000
  O   O21       1.0  0.68536  0.96051  0.54649  1.0000
  H   H91       1.0  0.69733  0.95676  0.59708  1.0000
  O   O22       1.0  0.72080  0.53155  0.54496  1.0000
  H   H92       1.0  0.73682  0.53584  0.59519  1.0000
  C   C183      1.0  0.90962  0.69939  0.34557  1.0000
  C   C184      1.0  0.98341  0.73635  0.34997  1.0000
  C   C185      1.0  0.96474  0.74425  0.41438  1.0000
  C   C186      1.0  0.92781  0.72555  0.41066  1.0000
  H   H93       1.0  0.91384  0.73062  0.45691  1.0000
  C   C187      1.0  0.52031  0.75480  0.34997  1.0000
  C   C188      1.0  0.59410  0.79163  0.34556  1.0000
  C   C189      1.0  0.57591  0.79959  0.41067  1.0000
  C   C190      1.0  0.53898  0.78137  0.41438  1.0000
  C   C191      1.0  0.52031  0.78870  0.47962  1.0000
  C   C192      1.0  0.98341  0.77025  0.47961  1.0000
  H   H94       1.0  0.58988  0.81864  0.45690  1.0000
  O   O23       1.0  0.53738  0.81423  0.54180  1.0000
  H   H95       1.0  0.54132  0.80283  0.59341  1.0000
  O   O24       1.0  0.96634  0.77871  0.54179  1.0000
  H   H96       1.0  0.96240  0.76337  0.59340  1.0000
