data_image0
_chemical_formula_structural       CNCHCNCHCNCHCNCHCNCHCNCHNC2HNC2HNC2HNC2HNC2HNC2HCNCHCNCHCNCHCNCHCNCHCNCHCNCNCNCNCNCNCNCNCNCNCNCNCNCNCNCNCNCNCNCNCNCNCNCNCNCNCNCNCNCNCNCNCNCNCNCN2C2HNC2HNC2HNC2HNC2HNC2HCNCHCNCHCNCHCNCHCNCHCNCHNC2HNC2HNC2HNC2HNC2HNC2H
_chemical_formula_sum              "C108 N72 H36"
_cell_length_a       38.6719
_cell_length_b       38.672
_cell_length_c       14.7091
_cell_angle_alpha    90
_cell_angle_beta     90
_cell_angle_gamma    120

_space_group_name_H-M_alt    "P 1"
_space_group_IT_number       1

loop_
  _space_group_symop_operation_xyz
  'x, y, z'

loop_
  _atom_site_type_symbol
  _atom_site_label
  _atom_site_symmetry_multiplicity
  _atom_site_fract_x
  _atom_site_fract_y
  _atom_site_fract_z
  _atom_site_occupancy
  C   C1        1.0  0.22431  0.46246  0.27123  1.0000
  N   N1        1.0  0.25962  0.46281  0.27342  1.0000
  C   C2        1.0  0.27719  0.46227  0.35299  1.0000
  H   H1        1.0  0.21284  0.46391  0.20966  1.0000
  C   C3        1.0  0.58079  0.78528  0.27121  1.0000
  N   N2        1.0  0.58042  0.82022  0.27339  1.0000
  C   C4        1.0  0.58099  0.83837  0.35292  1.0000
  H   H2        1.0  0.57929  0.77233  0.20965  1.0000
  C   C5        1.0  0.25791  0.81898  0.27115  1.0000
  N   N3        1.0  0.22295  0.78367  0.27332  1.0000
  C   C6        1.0  0.20489  0.76604  0.35287  1.0000
  H   H3        1.0  0.27081  0.83049  0.20959  1.0000
  C   C7        1.0  0.81776  0.58211  0.27113  1.0000
  N   N4        1.0  0.78244  0.58173  0.27331  1.0000
  C   C8        1.0  0.76480  0.58212  0.35288  1.0000
  H   H4        1.0  0.82929  0.58076  0.20955  1.0000
  C   C9        1.0  0.46119  0.25914  0.27118  1.0000
  N   N5        1.0  0.46154  0.22418  0.27335  1.0000
  C   C10       1.0  0.46100  0.20607  0.35291  1.0000
  H   H5        1.0  0.46266  0.27207  0.20962  1.0000
  C   C11       1.0  0.78406  0.22546  0.27126  1.0000
  N   N6        1.0  0.81900  0.26077  0.27342  1.0000
  C   C12       1.0  0.83711  0.27838  0.35295  1.0000
  H   H6        1.0  0.77113  0.21397  0.20970  1.0000
  N   N7        1.0  0.15505  0.57111  0.27368  1.0000
  C   C13       1.0  0.15549  0.60642  0.27149  1.0000
  C   C14       1.0  0.15533  0.62533  0.35339  1.0000
  H   H7        1.0  0.15382  0.61781  0.20998  1.0000
  N   N8        1.0  0.47215  0.60743  0.27367  1.0000
  C   C15       1.0  0.43684  0.57256  0.27142  1.0000
  C   C16       1.0  0.41785  0.55350  0.35326  1.0000
  H   H8        1.0  0.42548  0.55951  0.20988  1.0000
  N   N9        1.0  0.43589  0.88823  0.27371  1.0000
  C   C17       1.0  0.47076  0.88778  0.27149  1.0000
  C   C18       1.0  0.48978  0.88784  0.35337  1.0000
  H   H9        1.0  0.48383  0.88950  0.20998  1.0000
  N   N10       1.0  0.88699  0.47336  0.27371  1.0000
  C   C19       1.0  0.88654  0.43805  0.27151  1.0000
  C   C20       1.0  0.88659  0.41907  0.35339  1.0000
  H   H10       1.0  0.88825  0.42669  0.20999  1.0000
  N   N11       1.0  0.56986  0.43704  0.27368  1.0000
  C   C21       1.0  0.60517  0.47191  0.27148  1.0000
  C   C22       1.0  0.62409  0.49097  0.35337  1.0000
  H   H11       1.0  0.61655  0.48497  0.20997  1.0000
  N   N12       1.0  0.60618  0.15629  0.27371  1.0000
  C   C23       1.0  0.57131  0.15673  0.27147  1.0000
  C   C24       1.0  0.55224  0.15665  0.35332  1.0000
  H   H12       1.0  0.55826  0.15505  0.20994  1.0000
  C   C25       1.0  0.04061  0.40445  0.27134  1.0000
  N   N13       1.0  0.00006  0.38484  0.27359  1.0000
  C   C26       1.0  0.97925  0.37340  0.35284  1.0000
  H   H13       1.0  0.05460  0.41394  0.20991  1.0000
  C   C27       1.0  0.63915  0.65995  0.27126  1.0000
  N   N14       1.0  0.65877  0.63902  0.27351  1.0000
  C   C28       1.0  0.66986  0.62933  0.35283  1.0000
  H   H14       1.0  0.62990  0.66471  0.20979  1.0000
  C   C29       1.0  0.38336  0.00266  0.27124  1.0000
  N   N15       1.0  0.40429  0.04322  0.27355  1.0000
  C   C30       1.0  0.41389  0.06392  0.35296  1.0000
  H   H15       1.0  0.37865  0.98868  0.20975  1.0000
  C   C31       1.0  0.00141  0.64049  0.27126  1.0000
  N   N16       1.0  0.04196  0.66011  0.27353  1.0000
  C   C32       1.0  0.06273  0.67108  0.35287  1.0000
  H   H16       1.0  0.98741  0.63132  0.20976  1.0000
  C   C33       1.0  0.40324  0.38489  0.27132  1.0000
  N   N17       1.0  0.38363  0.40582  0.27353  1.0000
  C   C34       1.0  0.37220  0.41514  0.35285  1.0000
  H   H17       1.0  0.41274  0.38038  0.20991  1.0000
  C   C35       1.0  0.65853  0.04178  0.27122  1.0000
  N   N18       1.0  0.63763  0.00123  0.27353  1.0000
  C   C36       1.0  0.62813  0.98051  0.35291  1.0000
  H   H18       1.0  0.66317  0.05578  0.20976  1.0000
  C   C37       1.0  0.10316  0.44555  0.35299  1.0000
  N   N19       1.0  0.13405  0.43809  0.35288  1.0000
  C   C38       1.0  0.17249  0.46894  0.35295  1.0000
  N   N20       1.0  0.17979  0.50719  0.35312  1.0000
  C   C39       1.0  0.14917  0.51482  0.35321  1.0000
  N   N21       1.0  0.11113  0.48394  0.35318  1.0000
  C   C40       1.0  0.59768  0.68101  0.35295  1.0000
  N   N22       1.0  0.60519  0.71938  0.35279  1.0000
  C   C41       1.0  0.57436  0.72700  0.35286  1.0000
  N   N23       1.0  0.53609  0.69608  0.35309  1.0000
  C   C42       1.0  0.52843  0.65783  0.35320  1.0000
  N   N24       1.0  0.55928  0.65062  0.35317  1.0000
  C   C43       1.0  0.36220  0.94008  0.35290  1.0000
  N   N25       1.0  0.32384  0.90919  0.35275  1.0000
  C   C44       1.0  0.31625  0.87075  0.35288  1.0000
  N   N26       1.0  0.34719  0.86344  0.35313  1.0000
  C   C45       1.0  0.38544  0.89406  0.35322  1.0000
  N   N27       1.0  0.39261  0.93210  0.35314  1.0000
  C   C46       1.0  0.93886  0.59889  0.35289  1.0000
  N   N28       1.0  0.90797  0.60637  0.35269  1.0000
  C   C47       1.0  0.86954  0.57552  0.35282  1.0000
  N   N29       1.0  0.86222  0.53726  0.35311  1.0000
  C   C48       1.0  0.89283  0.52963  0.35325  1.0000
  N   N30       1.0  0.93088  0.56050  0.35318  1.0000
  C   C49       1.0  0.44431  0.36340  0.35301  1.0000
  N   N31       1.0  0.43683  0.32504  0.35288  1.0000
  C   C50       1.0  0.46768  0.31744  0.35294  1.0000
  N   N32       1.0  0.50593  0.34838  0.35310  1.0000
  C   C51       1.0  0.51357  0.38663  0.35321  1.0000
  N   N33       1.0  0.48270  0.39381  0.35318  1.0000
  C   C52       1.0  0.67976  0.10433  0.35293  1.0000
  N   N34       1.0  0.71813  0.13520  0.35282  1.0000
  C   C53       1.0  0.72575  0.17364  0.35293  1.0000
  N   N35       1.0  0.69483  0.18099  0.35315  1.0000
  C   C54       1.0  0.65658  0.15040  0.35322  1.0000
  N   N36       1.0  0.64937  0.11234  0.35314  1.0000
  C   C55       1.0  0.44387  0.10414  0.35294  1.0000
  N   N37       1.0  0.43641  0.13503  0.35276  1.0000
  C   C56       1.0  0.46729  0.17343  0.35286  1.0000
  N   N38       1.0  0.50553  0.18073  0.35310  1.0000
  C   C57       1.0  0.51316  0.15010  0.35324  1.0000
  N   N39       1.0  0.48223  0.11205  0.35318  1.0000
  C   C58       1.0  0.68007  0.59933  0.35285  1.0000
  N   N40       1.0  0.71840  0.60676  0.35266  1.0000
  C   C59       1.0  0.72589  0.57586  0.35282  1.0000
  N   N41       1.0  0.69492  0.53763  0.35313  1.0000
  C   C60       1.0  0.65668  0.53004  0.35326  1.0000
  N   N42       1.0  0.64960  0.56099  0.35315  1.0000
  C   C61       1.0  0.93904  0.36316  0.35291  1.0000
  N   N43       1.0  0.90815  0.32482  0.35280  1.0000
  C   C62       1.0  0.86974  0.31730  0.35295  1.0000
  N   N44       1.0  0.86246  0.34825  0.35318  1.0000
  C   C63       1.0  0.89310  0.38650  0.35325  1.0000
  N   N45       1.0  0.93114  0.39361  0.35314  1.0000
  C   C64       1.0  0.59814  0.94029  0.35293  1.0000
  N   N46       1.0  0.60559  0.90941  0.35278  1.0000
  C   C65       1.0  0.57471  0.87100  0.35289  1.0000
  N   N47       1.0  0.53647  0.86371  0.35313  1.0000
  C   C66       1.0  0.52886  0.89435  0.35325  1.0000
  N   N48       1.0  0.55979  0.93240  0.35316  1.0000
  C   C67       1.0  0.36197  0.44513  0.35293  1.0000
  N   N49       1.0  0.32363  0.43768  0.35284  1.0000
  C   C68       1.0  0.31611  0.46856  0.35297  1.0000
  N   N50       1.0  0.34705  0.50679  0.35314  1.0000
  C   C69       1.0  0.38530  0.51441  0.35318  1.0000
  N   N51       1.0  0.39242  0.48349  0.35309  1.0000
  C   C70       1.0  0.10293  0.68129  0.35286  1.0000
  N   N52       1.0  0.13384  0.71963  0.35265  1.0000
  C   C71       1.0  0.17224  0.72713  0.35280  1.0000
  N   N53       1.0  0.17951  0.69617  0.35312  1.0000
  C   C72       1.0  0.14885  0.65792  0.35327  1.0000
  N   N54       1.0  0.11082  0.65083  0.35318  1.0000
  N   N55       1.0  0.25996  0.46351  0.43252  1.0000
  C   C73       1.0  0.22465  0.46313  0.43474  1.0000
  C   C74       1.0  0.20527  0.46258  0.35297  1.0000
  H   H19       1.0  0.21348  0.46518  0.49622  1.0000
  N   N56       1.0  0.57982  0.81993  0.43243  1.0000
  C   C75       1.0  0.58022  0.78500  0.43468  1.0000
  C   C76       1.0  0.58078  0.76616  0.35297  1.0000
  H   H20       1.0  0.57820  0.77181  0.49619  1.0000
  N   N57       1.0  0.22337  0.78322  0.43241  1.0000
  C   C77       1.0  0.25831  0.81854  0.43467  1.0000
  C   C78       1.0  0.27711  0.83796  0.35293  1.0000
  H   H21       1.0  0.27154  0.82967  0.49616  1.0000
  N   N58       1.0  0.78197  0.58078  0.43240  1.0000
  C   C79       1.0  0.81729  0.58117  0.43462  1.0000
  C   C80       1.0  0.83675  0.58188  0.35288  1.0000
  H   H22       1.0  0.82842  0.57903  0.49610  1.0000
  N   N59       1.0  0.46224  0.22452  0.43244  1.0000
  C   C81       1.0  0.46186  0.25946  0.43468  1.0000
  C   C82       1.0  0.46131  0.27829  0.35294  1.0000
  H   H23       1.0  0.46391  0.27267  0.49618  1.0000
  N   N60       1.0  0.81865  0.26117  0.43249  1.0000
  C   C83       1.0  0.78372  0.22584  0.43475  1.0000
  C   C84       1.0  0.76491  0.20640  0.35303  1.0000
  H   H24       1.0  0.77050  0.21469  0.49625  1.0000
  C   C85       1.0  0.15506  0.60619  0.43525  1.0000
  N   N61       1.0  0.15468  0.57091  0.43303  1.0000
  C   C86       1.0  0.15567  0.55368  0.35336  1.0000
  H   H25       1.0  0.15320  0.61748  0.49674  1.0000
  C   C87       1.0  0.43700  0.57234  0.43514  1.0000
  N   N62       1.0  0.47229  0.60724  0.43298  1.0000
  C   C88       1.0  0.48955  0.62548  0.35336  1.0000
  H   H26       1.0  0.42570  0.55919  0.49662  1.0000
  C   C89       1.0  0.47090  0.88808  0.43523  1.0000
  N   N63       1.0  0.43600  0.88847  0.43301  1.0000
  C   C90       1.0  0.41780  0.88756  0.35336  1.0000
  H   H27       1.0  0.48402  0.88988  0.49673  1.0000
  C   C91       1.0  0.88685  0.43821  0.43525  1.0000
  N   N64       1.0  0.88725  0.47350  0.43305  1.0000
  C   C92       1.0  0.88632  0.49076  0.35339  1.0000
  H   H28       1.0  0.88866  0.42689  0.49674  1.0000
  C   C93       1.0  0.60495  0.47211  0.43524  1.0000
  N   N65       1.0  0.56967  0.43721  0.43302  1.0000
  C   C94       1.0  0.55244  0.41899  0.35335  1.0000
  H   H29       1.0  0.61625  0.48525  0.49673  1.0000
  C   C95       1.0  0.57108  0.15632  0.43519  1.0000
  N   N66       1.0  0.60598  0.15593  0.43302  1.0000
  C   C96       1.0  0.62423  0.15692  0.35339  1.0000
  H   H30       1.0  0.55793  0.15446  0.49667  1.0000
  N   N67       1.0  0.00001  0.38491  0.43218  1.0000
  C   C97       1.0  0.04055  0.40445  0.43466  1.0000
  C   C98       1.0  0.06274  0.41539  0.35305  1.0000
  H   H31       1.0  0.05449  0.41412  0.49609  1.0000
  N   N68       1.0  0.65801  0.63820  0.43218  1.0000
  C   C99       1.0  0.63843  0.65917  0.43470  1.0000
  C   C100      1.0  0.62780  0.67068  0.35301  1.0000
  H   H32       1.0  0.62850  0.66319  0.49604  1.0000
  N   N69       1.0  0.40495  0.04319  0.43228  1.0000
  C   C101      1.0  0.38398  0.00265  0.43464  1.0000
  C   C102      1.0  0.37249  0.98052  0.35291  1.0000
  H   H33       1.0  0.37990  0.98867  0.49597  1.0000
  N   N70       1.0  0.04199  0.65911  0.43218  1.0000
  C   C103      1.0  0.00144  0.63953  0.43464  1.0000
  C   C104      1.0  0.97929  0.62904  0.35297  1.0000
  H   H34       1.0  0.98750  0.62952  0.49595  1.0000
  N   N71       1.0  0.38367  0.40592  0.43226  1.0000
  C   C105      1.0  0.40321  0.38492  0.43468  1.0000
  C   C106      1.0  0.41416  0.37367  0.35305  1.0000
  H   H35       1.0  0.41287  0.38063  0.49610  1.0000
  N   N72       1.0  0.63715  0.00122  0.43228  1.0000
  C   C107      1.0  0.65811  0.04177  0.43468  1.0000
  C   C108      1.0  0.66943  0.06388  0.35295  1.0000
  H   H36       1.0  0.66225  0.05574  0.49603  1.0000
