data_image0
_chemical_formula_structural       C5OHOHNHC3OHOHNHC3OHOHNHNCNCNC3O3NCNCNC3O3C3O2H2NHC3O2H2NHC3O2H2NHC5OHOHNHC3OHOHNHC3OHOHNHNCNCNC3O3NCNCNC3O3C3O2H2NHC3O2H2NHC3O2H2NHC5OHOHNHC3OHOHNHC3OHOHNHNCNCNC3O3NCNCNC3O3C3O2H2NHC3O2H2NHC3O2H2NHC5OHOHNHC3OHOHNHC3OHOHNHNCNCNC3O3NCNCNC3O3C3O2H2NHC3O2H2NHC3O2H2NH
_chemical_formula_sum              "C120 O72 H72 N48"
_cell_length_a       43.5228
_cell_length_b       43.5228
_cell_length_c       15.0465
_cell_angle_alpha    90
_cell_angle_beta     90
_cell_angle_gamma    120

_space_group_name_H-M_alt    "P 1"
_space_group_IT_number       1

loop_
  _space_group_symop_operation_xyz
  'x, y, z'

loop_
  _atom_site_type_symbol
  _atom_site_label
  _atom_site_symmetry_multiplicity
  _atom_site_fract_x
  _atom_site_fract_y
  _atom_site_fract_z
  _atom_site_occupancy
  C   C1        1.0  0.12905  0.32178  0.24694  1.0000
  C   C2        1.0  0.36631  0.17521  0.41370  1.0000
  C   C3        1.0  0.27992  0.25352  0.29555  1.0000
  C   C4        1.0  0.26448  0.27298  0.26157  1.0000
  C   C5        1.0  0.23169  0.26787  0.29444  1.0000
  O   O1        1.0  0.27980  0.29403  0.18915  1.0000
  H   H1        1.0  0.29806  0.31720  0.21222  1.0000
  O   O2        1.0  0.30720  0.25434  0.24877  1.0000
  H   H2        1.0  0.32774  0.27845  0.25396  1.0000
  N   N1        1.0  0.21869  0.28847  0.26153  1.0000
  H   H3        1.0  0.23597  0.31127  0.23613  1.0000
  C   C6        1.0  0.24266  0.02566  0.29546  1.0000
  C   C7        1.0  0.22320  0.49075  0.26152  1.0000
  C   C8        1.0  0.22827  0.46306  0.29448  1.0000
  O   O3        1.0  0.20214  0.48501  0.18910  1.0000
  H   H4        1.0  0.17898  0.48012  0.21217  1.0000
  O   O4        1.0  0.24184  0.05212  0.24867  1.0000
  H   H5        1.0  0.21773  0.04854  0.25383  1.0000
  N   N2        1.0  0.20766  0.42946  0.26159  1.0000
  H   H6        1.0  0.18487  0.42394  0.23615  1.0000
  C   C9        1.0  0.47050  0.21618  0.29569  1.0000
  C   C10       1.0  0.00541  0.23163  0.26172  1.0000
  C   C11       1.0  0.03308  0.26443  0.29454  1.0000
  O   O5        1.0  0.01113  0.21629  0.18932  1.0000
  H   H7        1.0  0.01606  0.19805  0.21243  1.0000
  O   O6        1.0  0.44406  0.18890  0.24890  1.0000
  H   H8        1.0  0.44762  0.16835  0.25417  1.0000
  N   N3        1.0  0.06668  0.27743  0.26163  1.0000
  H   H9        1.0  0.07221  0.26015  0.23622  1.0000
  N   N4        1.0  0.15451  0.35657  0.24776  1.0000
  C   C12       1.0  0.18961  0.36708  0.24695  1.0000
  N   N5        1.0  0.19895  0.34163  0.24774  1.0000
  C   C13       1.0  0.17437  0.30652  0.24691  1.0000
  N   N6        1.0  0.13957  0.29719  0.24773  1.0000
  C   C14       1.0  0.21564  0.40294  0.25741  1.0000
  C   C15       1.0  0.18419  0.28049  0.25735  1.0000
  C   C16       1.0  0.09319  0.31193  0.25739  1.0000
  O   O7        1.0  0.15774  0.24617  0.25980  1.0000
  O   O8        1.0  0.08531  0.33838  0.25990  1.0000
  O   O9        1.0  0.24996  0.41081  0.25986  1.0000
  N   N7        1.0  0.34090  0.14040  0.41285  1.0000
  C   C17       1.0  0.30578  0.12982  0.41364  1.0000
  N   N8        1.0  0.29638  0.15523  0.41284  1.0000
  C   C18       1.0  0.32093  0.19035  0.41366  1.0000
  N   N9        1.0  0.35574  0.19975  0.41288  1.0000
  C   C19       1.0  0.27981  0.09394  0.40315  1.0000
  C   C20       1.0  0.31103  0.21633  0.40320  1.0000
  C   C21       1.0  0.40218  0.18509  0.40323  1.0000
  O   O10       1.0  0.33744  0.25067  0.40069  1.0000
  O   O11       1.0  0.41010  0.15867  0.40080  1.0000
  O   O12       1.0  0.24547  0.08601  0.40062  1.0000
  C   C22       1.0  0.26349  0.22885  0.36592  1.0000
  C   C23       1.0  0.21524  0.24319  0.36483  1.0000
  C   C24       1.0  0.23069  0.22373  0.39875  1.0000
  O   O13       1.0  0.18796  0.24236  0.41158  1.0000
  O   O14       1.0  0.21536  0.20267  0.47118  1.0000
  H   H10       1.0  0.16742  0.21824  0.40631  1.0000
  H   H11       1.0  0.19713  0.17950  0.44808  1.0000
  N   N10       1.0  0.27652  0.20828  0.39890  1.0000
  H   H12       1.0  0.25925  0.18548  0.42433  1.0000
  C   C25       1.0  0.26732  0.03389  0.36588  1.0000
  C   C26       1.0  0.25292  0.47129  0.36493  1.0000
  C   C27       1.0  0.27241  0.00621  0.39879  1.0000
  O   O15       1.0  0.25372  0.44481  0.41163  1.0000
  O   O16       1.0  0.29345  0.01193  0.47126  1.0000
  H   H13       1.0  0.27784  0.44839  0.40650  1.0000
  H   H14       1.0  0.31662  0.01686  0.44820  1.0000
  N   N11       1.0  0.28787  0.06748  0.39887  1.0000
  H   H15       1.0  0.31067  0.07302  0.42434  1.0000
  C   C28       1.0  0.46226  0.23263  0.36603  1.0000
  C   C29       1.0  0.02484  0.28087  0.36491  1.0000
  C   C30       1.0  0.48994  0.26543  0.39887  1.0000
  O   O17       1.0  0.05129  0.30815  0.41168  1.0000
  O   O18       1.0  0.48419  0.28075  0.47128  1.0000
  H   H16       1.0  0.04772  0.32869  0.40644  1.0000
  H   H17       1.0  0.47928  0.29900  0.44817  1.0000
  N   N12       1.0  0.42866  0.21960  0.39899  1.0000
  H   H18       1.0  0.42312  0.23687  0.42439  1.0000
  C   C31       1.0  0.12905  0.82178  0.24694  1.0000
  C   C32       1.0  0.36631  0.67521  0.41370  1.0000
  C   C33       1.0  0.27992  0.75352  0.29555  1.0000
  C   C34       1.0  0.26448  0.77297  0.26157  1.0000
  C   C35       1.0  0.23169  0.76787  0.29444  1.0000
  O   O19       1.0  0.27980  0.79404  0.18915  1.0000
  H   H19       1.0  0.29806  0.81719  0.21222  1.0000
  O   O20       1.0  0.30720  0.75434  0.24877  1.0000
  H   H20       1.0  0.32774  0.77845  0.25396  1.0000
  N   N13       1.0  0.21869  0.78847  0.26153  1.0000
  H   H21       1.0  0.23597  0.81127  0.23613  1.0000
  C   C36       1.0  0.24266  0.52567  0.29546  1.0000
  C   C37       1.0  0.22320  0.99075  0.26152  1.0000
  C   C38       1.0  0.22827  0.96306  0.29448  1.0000
  O   O21       1.0  0.20214  0.98501  0.18910  1.0000
  H   H22       1.0  0.17898  0.98012  0.21217  1.0000
  O   O22       1.0  0.24184  0.55212  0.24867  1.0000
  H   H23       1.0  0.21773  0.54854  0.25383  1.0000
  N   N14       1.0  0.20766  0.92946  0.26159  1.0000
  H   H24       1.0  0.18487  0.92394  0.23615  1.0000
  C   C39       1.0  0.47050  0.71618  0.29569  1.0000
  C   C40       1.0  0.00541  0.73163  0.26172  1.0000
  C   C41       1.0  0.03308  0.76443  0.29454  1.0000
  O   O23       1.0  0.01113  0.71629  0.18932  1.0000
  H   H25       1.0  0.01606  0.69805  0.21243  1.0000
  O   O24       1.0  0.44406  0.68890  0.24890  1.0000
  H   H26       1.0  0.44762  0.66835  0.25417  1.0000
  N   N15       1.0  0.06668  0.77743  0.26163  1.0000
  H   H27       1.0  0.07220  0.76015  0.23622  1.0000
  N   N16       1.0  0.15451  0.85657  0.24776  1.0000
  C   C42       1.0  0.18961  0.86708  0.24695  1.0000
  N   N17       1.0  0.19895  0.84163  0.24774  1.0000
  C   C43       1.0  0.17437  0.80652  0.24691  1.0000
  N   N18       1.0  0.13957  0.79719  0.24773  1.0000
  C   C44       1.0  0.21564  0.90294  0.25741  1.0000
  C   C45       1.0  0.18419  0.78049  0.25735  1.0000
  C   C46       1.0  0.09319  0.81193  0.25739  1.0000
  O   O25       1.0  0.15774  0.74617  0.25980  1.0000
  O   O26       1.0  0.08531  0.83838  0.25991  1.0000
  O   O27       1.0  0.24996  0.91081  0.25986  1.0000
  N   N19       1.0  0.34090  0.64040  0.41285  1.0000
  C   C47       1.0  0.30578  0.62982  0.41364  1.0000
  N   N20       1.0  0.29638  0.65523  0.41284  1.0000
  C   C48       1.0  0.32093  0.69035  0.41366  1.0000
  N   N21       1.0  0.35574  0.69975  0.41288  1.0000
  C   C49       1.0  0.27981  0.59394  0.40315  1.0000
  C   C50       1.0  0.31103  0.71633  0.40320  1.0000
  C   C51       1.0  0.40218  0.68509  0.40323  1.0000
  O   O28       1.0  0.33744  0.75067  0.40069  1.0000
  O   O29       1.0  0.41010  0.65867  0.40080  1.0000
  O   O30       1.0  0.24547  0.58601  0.40062  1.0000
  C   C52       1.0  0.26349  0.72885  0.36592  1.0000
  C   C53       1.0  0.21524  0.74319  0.36483  1.0000
  C   C54       1.0  0.23069  0.72373  0.39875  1.0000
  O   O31       1.0  0.18796  0.74236  0.41158  1.0000
  O   O32       1.0  0.21536  0.70267  0.47118  1.0000
  H   H28       1.0  0.16742  0.71824  0.40631  1.0000
  H   H29       1.0  0.19713  0.67950  0.44808  1.0000
  N   N22       1.0  0.27652  0.70829  0.39890  1.0000
  H   H30       1.0  0.25925  0.68548  0.42433  1.0000
  C   C55       1.0  0.26732  0.53389  0.36588  1.0000
  C   C56       1.0  0.25292  0.97129  0.36493  1.0000
  C   C57       1.0  0.27241  0.50621  0.39879  1.0000
  O   O33       1.0  0.25372  0.94481  0.41163  1.0000
  O   O34       1.0  0.29345  0.51193  0.47126  1.0000
  H   H31       1.0  0.27784  0.94839  0.40650  1.0000
  H   H32       1.0  0.31662  0.51686  0.44820  1.0000
  N   N23       1.0  0.28787  0.56748  0.39887  1.0000
  H   H33       1.0  0.31067  0.57302  0.42434  1.0000
  C   C58       1.0  0.46226  0.73263  0.36603  1.0000
  C   C59       1.0  0.02484  0.78087  0.36491  1.0000
  C   C60       1.0  0.48994  0.76542  0.39887  1.0000
  O   O35       1.0  0.05129  0.80815  0.41168  1.0000
  O   O36       1.0  0.48419  0.78075  0.47128  1.0000
  H   H34       1.0  0.04772  0.82869  0.40644  1.0000
  H   H35       1.0  0.47928  0.79900  0.44817  1.0000
  N   N24       1.0  0.42866  0.71960  0.39899  1.0000
  H   H36       1.0  0.42312  0.73687  0.42439  1.0000
  C   C61       1.0  0.62905  0.32178  0.24694  1.0000
  C   C62       1.0  0.86631  0.17521  0.41370  1.0000
  C   C63       1.0  0.77993  0.25352  0.29555  1.0000
  C   C64       1.0  0.76448  0.27298  0.26157  1.0000
  C   C65       1.0  0.73169  0.26787  0.29444  1.0000
  O   O37       1.0  0.77980  0.29403  0.18915  1.0000
  H   H37       1.0  0.79806  0.31720  0.21222  1.0000
  O   O38       1.0  0.80720  0.25434  0.24877  1.0000
  H   H38       1.0  0.82774  0.27845  0.25396  1.0000
  N   N25       1.0  0.71869  0.28847  0.26153  1.0000
  H   H39       1.0  0.73597  0.31127  0.23613  1.0000
  C   C66       1.0  0.74266  0.02566  0.29546  1.0000
  C   C67       1.0  0.72320  0.49075  0.26152  1.0000
  C   C68       1.0  0.72827  0.46306  0.29448  1.0000
  O   O39       1.0  0.70214  0.48501  0.18910  1.0000
  H   H40       1.0  0.67898  0.48012  0.21217  1.0000
  O   O40       1.0  0.74184  0.05212  0.24867  1.0000
  H   H41       1.0  0.71773  0.04854  0.25383  1.0000
  N   N26       1.0  0.70766  0.42946  0.26159  1.0000
  H   H42       1.0  0.68487  0.42394  0.23615  1.0000
  C   C69       1.0  0.97050  0.21618  0.29569  1.0000
  C   C70       1.0  0.50541  0.23163  0.26172  1.0000
  C   C71       1.0  0.53309  0.26443  0.29454  1.0000
  O   O41       1.0  0.51113  0.21629  0.18932  1.0000
  H   H43       1.0  0.51606  0.19805  0.21243  1.0000
  O   O42       1.0  0.94406  0.18890  0.24890  1.0000
  H   H44       1.0  0.94762  0.16835  0.25417  1.0000
  N   N27       1.0  0.56668  0.27743  0.26163  1.0000
  H   H45       1.0  0.57220  0.26015  0.23622  1.0000
  N   N28       1.0  0.65451  0.35657  0.24776  1.0000
  C   C72       1.0  0.68961  0.36708  0.24695  1.0000
  N   N29       1.0  0.69895  0.34163  0.24774  1.0000
  C   C73       1.0  0.67436  0.30652  0.24691  1.0000
  N   N30       1.0  0.63957  0.29719  0.24773  1.0000
  C   C74       1.0  0.71564  0.40294  0.25741  1.0000
  C   C75       1.0  0.68419  0.28049  0.25735  1.0000
  C   C76       1.0  0.59319  0.31193  0.25739  1.0000
  O   O43       1.0  0.65774  0.24617  0.25980  1.0000
  O   O44       1.0  0.58532  0.33838  0.25990  1.0000
  O   O45       1.0  0.74996  0.41081  0.25986  1.0000
  N   N31       1.0  0.84090  0.14040  0.41285  1.0000
  C   C77       1.0  0.80578  0.12982  0.41364  1.0000
  N   N32       1.0  0.79638  0.15523  0.41284  1.0000
  C   C78       1.0  0.82093  0.19035  0.41366  1.0000
  N   N33       1.0  0.85574  0.19975  0.41288  1.0000
  C   C79       1.0  0.77981  0.09394  0.40315  1.0000
  C   C80       1.0  0.81104  0.21633  0.40320  1.0000
  C   C81       1.0  0.90218  0.18509  0.40323  1.0000
  O   O46       1.0  0.83744  0.25067  0.40069  1.0000
  O   O47       1.0  0.91010  0.15867  0.40080  1.0000
  O   O48       1.0  0.74547  0.08601  0.40062  1.0000
  C   C82       1.0  0.76349  0.22885  0.36592  1.0000
  C   C83       1.0  0.71524  0.24319  0.36483  1.0000
  C   C84       1.0  0.73069  0.22373  0.39875  1.0000
  O   O49       1.0  0.68796  0.24236  0.41158  1.0000
  O   O50       1.0  0.71536  0.20267  0.47118  1.0000
  H   H46       1.0  0.66742  0.21824  0.40631  1.0000
  H   H47       1.0  0.69713  0.17950  0.44808  1.0000
  N   N34       1.0  0.77652  0.20828  0.39890  1.0000
  H   H48       1.0  0.75925  0.18548  0.42433  1.0000
  C   C85       1.0  0.76731  0.03389  0.36588  1.0000
  C   C86       1.0  0.75292  0.47129  0.36493  1.0000
  C   C87       1.0  0.77241  0.00621  0.39879  1.0000
  O   O51       1.0  0.75372  0.44481  0.41163  1.0000
  O   O52       1.0  0.79345  0.01193  0.47126  1.0000
  H   H49       1.0  0.77784  0.44839  0.40650  1.0000
  H   H50       1.0  0.81662  0.01686  0.44820  1.0000
  N   N35       1.0  0.78787  0.06748  0.39887  1.0000
  H   H51       1.0  0.81067  0.07302  0.42434  1.0000
  C   C88       1.0  0.96226  0.23263  0.36603  1.0000
  C   C89       1.0  0.52484  0.28087  0.36491  1.0000
  C   C90       1.0  0.98994  0.26543  0.39887  1.0000
  O   O53       1.0  0.55129  0.30815  0.41168  1.0000
  O   O54       1.0  0.98419  0.28075  0.47128  1.0000
  H   H52       1.0  0.54772  0.32869  0.40644  1.0000
  H   H53       1.0  0.97929  0.29900  0.44817  1.0000
  N   N36       1.0  0.92866  0.21960  0.39899  1.0000
  H   H54       1.0  0.92312  0.23687  0.42439  1.0000
  C   C91       1.0  0.62905  0.82178  0.24694  1.0000
  C   C92       1.0  0.86631  0.67521  0.41370  1.0000
  C   C93       1.0  0.77993  0.75352  0.29555  1.0000
  C   C94       1.0  0.76448  0.77297  0.26157  1.0000
  C   C95       1.0  0.73169  0.76787  0.29444  1.0000
  O   O55       1.0  0.77980  0.79404  0.18915  1.0000
  H   H55       1.0  0.79806  0.81719  0.21222  1.0000
  O   O56       1.0  0.80720  0.75434  0.24877  1.0000
  H   H56       1.0  0.82774  0.77845  0.25396  1.0000
  N   N37       1.0  0.71869  0.78847  0.26153  1.0000
  H   H57       1.0  0.73598  0.81127  0.23613  1.0000
  C   C96       1.0  0.74266  0.52567  0.29546  1.0000
  C   C97       1.0  0.72320  0.99075  0.26152  1.0000
  C   C98       1.0  0.72827  0.96306  0.29448  1.0000
  O   O57       1.0  0.70214  0.98501  0.18910  1.0000
  H   H58       1.0  0.67898  0.98012  0.21217  1.0000
  O   O58       1.0  0.74184  0.55212  0.24867  1.0000
  H   H59       1.0  0.71773  0.54854  0.25383  1.0000
  N   N38       1.0  0.70767  0.92946  0.26159  1.0000
  H   H60       1.0  0.68487  0.92394  0.23615  1.0000
  C   C99       1.0  0.97050  0.71618  0.29569  1.0000
  C   C100      1.0  0.50541  0.73163  0.26172  1.0000
  C   C101      1.0  0.53308  0.76443  0.29454  1.0000
  O   O59       1.0  0.51113  0.71629  0.18932  1.0000
  H   H61       1.0  0.51606  0.69805  0.21243  1.0000
  O   O60       1.0  0.94406  0.68890  0.24890  1.0000
  H   H62       1.0  0.94762  0.66835  0.25417  1.0000
  N   N39       1.0  0.56668  0.77743  0.26163  1.0000
  H   H63       1.0  0.57220  0.76015  0.23622  1.0000
  N   N40       1.0  0.65451  0.85657  0.24776  1.0000
  C   C102      1.0  0.68961  0.86708  0.24695  1.0000
  N   N41       1.0  0.69895  0.84163  0.24774  1.0000
  C   C103      1.0  0.67437  0.80652  0.24691  1.0000
  N   N42       1.0  0.63957  0.79719  0.24773  1.0000
  C   C104      1.0  0.71564  0.90294  0.25741  1.0000
  C   C105      1.0  0.68419  0.78049  0.25735  1.0000
  C   C106      1.0  0.59319  0.81193  0.25739  1.0000
  O   O61       1.0  0.65774  0.74617  0.25980  1.0000
  O   O62       1.0  0.58531  0.83838  0.25991  1.0000
  O   O63       1.0  0.74996  0.91081  0.25986  1.0000
  N   N43       1.0  0.84090  0.64040  0.41285  1.0000
  C   C107      1.0  0.80578  0.62982  0.41364  1.0000
  N   N44       1.0  0.79638  0.65523  0.41284  1.0000
  C   C108      1.0  0.82093  0.69035  0.41366  1.0000
  N   N45       1.0  0.85574  0.69975  0.41288  1.0000
  C   C109      1.0  0.77981  0.59394  0.40315  1.0000
  C   C110      1.0  0.81103  0.71633  0.40320  1.0000
  C   C111      1.0  0.90218  0.68509  0.40323  1.0000
  O   O64       1.0  0.83744  0.75067  0.40069  1.0000
  O   O65       1.0  0.91010  0.65867  0.40080  1.0000
  O   O66       1.0  0.74547  0.58601  0.40062  1.0000
  C   C112      1.0  0.76349  0.72885  0.36592  1.0000
  C   C113      1.0  0.71524  0.74319  0.36483  1.0000
  C   C114      1.0  0.73069  0.72373  0.39875  1.0000
  O   O67       1.0  0.68796  0.74236  0.41158  1.0000
  O   O68       1.0  0.71536  0.70267  0.47118  1.0000
  H   H64       1.0  0.66742  0.71824  0.40631  1.0000
  H   H65       1.0  0.69713  0.67950  0.44808  1.0000
  N   N46       1.0  0.77652  0.70829  0.39890  1.0000
  H   H66       1.0  0.75925  0.68548  0.42433  1.0000
  C   C115      1.0  0.76731  0.53389  0.36588  1.0000
  C   C116      1.0  0.75292  0.97129  0.36493  1.0000
  C   C117      1.0  0.77241  0.50621  0.39879  1.0000
  O   O69       1.0  0.75372  0.94481  0.41163  1.0000
  O   O70       1.0  0.79345  0.51193  0.47126  1.0000
  H   H67       1.0  0.77784  0.94839  0.40650  1.0000
  H   H68       1.0  0.81662  0.51686  0.44820  1.0000
  N   N47       1.0  0.78787  0.56748  0.39887  1.0000
  H   H69       1.0  0.81067  0.57302  0.42434  1.0000
  C   C118      1.0  0.96226  0.73263  0.36603  1.0000
  C   C119      1.0  0.52484  0.78087  0.36491  1.0000
  C   C120      1.0  0.98994  0.76542  0.39887  1.0000
  O   O71       1.0  0.55129  0.80815  0.41168  1.0000
  O   O72       1.0  0.98419  0.78075  0.47128  1.0000
  H   H70       1.0  0.54772  0.82869  0.40644  1.0000
  H   H71       1.0  0.97928  0.79900  0.44817  1.0000
  N   N48       1.0  0.92866  0.71960  0.39899  1.0000
  H   H72       1.0  0.92312  0.73687  0.42439  1.0000
