data_image0
_chemical_formula_structural       C3NC3NC5NC5NC36H26C4H4C3H2C4HNO2NC3H2C4HNO2NC16H16C5H3NO2NC5H3NO2N
_chemical_formula_sum              "C96 N12 H58 O8"
_cell_length_a       38.3864
_cell_length_b       38.3863
_cell_length_c       14.9218
_cell_angle_alpha    90
_cell_angle_beta     90
_cell_angle_gamma    90.1536

_space_group_name_H-M_alt    "P 1"
_space_group_IT_number       1

loop_
  _space_group_symop_operation_xyz
  'x, y, z'

loop_
  _atom_site_type_symbol
  _atom_site_label
  _atom_site_symmetry_multiplicity
  _atom_site_fract_x
  _atom_site_fract_y
  _atom_site_fract_z
  _atom_site_occupancy
  C   C1        1.0  0.09300  0.06996  0.31715  1.0000
  C   C2        1.0  0.06708  0.09482  0.31661  1.0000
  C   C3        1.0  0.03487  0.07775  0.31792  1.0000
  N   N1        1.0  0.04253  0.04328  0.31904  1.0000
  C   C4        1.0  0.07730  0.03707  0.31813  1.0000
  C   C5        1.0  0.09557  0.00483  0.31796  1.0000
  C   C6        1.0  0.07947  0.97146  0.31807  1.0000
  N   N2        1.0  0.04503  0.96399  0.31863  1.0000
  C   C7        1.0  0.03895  0.92929  0.31760  1.0000
  C   C8        1.0  0.07167  0.91345  0.31652  1.0000
  C   C9        1.0  0.09661  0.93942  0.31660  1.0000
  C   C10       1.0  0.00627  0.91183  0.31741  1.0000
  C   C11       1.0  0.97328  0.92870  0.31764  1.0000
  N   N3        1.0  0.96562  0.96318  0.31766  1.0000
  C   C12       1.0  0.93084  0.96937  0.31713  1.0000
  C   C13       1.0  0.91515  0.93646  0.31738  1.0000
  C   C14       1.0  0.94109  0.91161  0.31744  1.0000
  C   C15       1.0  0.91256  0.00161  0.31660  1.0000
  C   C16       1.0  0.92867  0.03498  0.31691  1.0000
  N   N4        1.0  0.96312  0.04246  0.31782  1.0000
  C   C17       1.0  0.96920  0.07716  0.31711  1.0000
  C   C18       1.0  0.93647  0.09299  0.31603  1.0000
  C   C19       1.0  0.91153  0.06702  0.31549  1.0000
  C   C20       1.0  0.00189  0.09463  0.31720  1.0000
  C   C21       1.0  0.00143  0.13180  0.31430  1.0000
  C   C22       1.0  0.99654  0.14932  0.23210  1.0000
  C   C23       1.0  0.99513  0.18592  0.22926  1.0000
  C   C24       1.0  0.99871  0.20618  0.30816  1.0000
  C   C25       1.0  0.99645  0.24337  0.30488  1.0000
  C   C26       1.0  0.99267  0.31797  0.29309  1.0000
  C   C27       1.0  0.96849  0.29645  0.24752  1.0000
  C   C28       1.0  0.97031  0.25993  0.25342  1.0000
  C   C29       1.0  0.87540  0.00047  0.31360  1.0000
  C   C30       1.0  0.85799  0.99500  0.23144  1.0000
  C   C31       1.0  0.82139  0.99333  0.22830  1.0000
  C   C32       1.0  0.80100  0.99725  0.30684  1.0000
  C   C33       1.0  0.76378  0.99491  0.30319  1.0000
  C   C34       1.0  0.74722  0.96855  0.25218  1.0000
  C   C35       1.0  0.71070  0.96669  0.24572  1.0000
  C   C36       1.0  0.68918  0.99105  0.29025  1.0000
  C   C37       1.0  0.00673  0.87467  0.31507  1.0000
  C   C38       1.0  0.00873  0.80018  0.30960  1.0000
  C   C39       1.0  0.00954  0.82029  0.22989  1.0000
  C   C40       1.0  0.00858  0.85692  0.23240  1.0000
  C   C41       1.0  0.00976  0.76285  0.30637  1.0000
  C   C42       1.0  0.03177  0.74524  0.24514  1.0000
  C   C43       1.0  0.03156  0.70867  0.23832  1.0000
  C   C44       1.0  0.00966  0.68832  0.29363  1.0000
  C   C45       1.0  0.13273  0.00596  0.31540  1.0000
  C   C46       1.0  0.15035  0.01043  0.23316  1.0000
  C   C47       1.0  0.18697  0.01179  0.23044  1.0000
  C   C48       1.0  0.20719  0.00861  0.30952  1.0000
  C   C49       1.0  0.24449  0.01006  0.30612  1.0000
  C   C50       1.0  0.31905  0.01140  0.29326  1.0000
  C   C51       1.0  0.29845  0.03526  0.24452  1.0000
  C   C52       1.0  0.26188  0.03470  0.25125  1.0000
  H   H1        1.0  0.30989  0.05323  0.20305  1.0000
  H   H2        1.0  0.24802  0.05264  0.21525  1.0000
  H   H3        1.0  0.19877  0.01453  0.16934  1.0000
  H   H4        1.0  0.13661  0.01271  0.17462  1.0000
  H   H5        1.0  0.11906  0.07550  0.31618  1.0000
  H   H6        1.0  0.07151  0.12108  0.31511  1.0000
  H   H7        1.0  0.02516  0.02519  0.31996  1.0000
  H   H8        1.0  0.98298  0.98127  0.31721  1.0000
  H   H9        1.0  0.12289  0.93519  0.31541  1.0000
  H   H10       1.0  0.07696  0.88737  0.31543  1.0000
  H   H11       1.0  0.00920  0.87056  0.17342  1.0000
  H   H12       1.0  0.01025  0.80842  0.16851  1.0000
  H   H13       1.0  0.93668  0.88534  0.31736  1.0000
  H   H14       1.0  0.88909  0.93092  0.31743  1.0000
  H   H15       1.0  0.93116  0.11907  0.31532  1.0000
  H   H16       1.0  0.88526  0.07126  0.31420  1.0000
  H   H17       1.0  0.87187  0.99205  0.17333  1.0000
  H   H18       1.0  0.80972  0.98963  0.16735  1.0000
  H   H19       1.0  0.69998  0.94730  0.20732  1.0000
  H   H20       1.0  0.76165  0.95019  0.21918  1.0000
  H   H21       1.0  0.95207  0.24548  0.21973  1.0000
  H   H22       1.0  0.94926  0.30717  0.20879  1.0000
  H   H23       1.0  0.99176  0.19768  0.16832  1.0000
  H   H24       1.0  0.99373  0.13551  0.17379  1.0000
  H   H25       1.0  0.04824  0.75893  0.20419  1.0000
  H   H26       1.0  0.04741  0.69705  0.19189  1.0000
  C   C53       1.0  0.99115  0.35396  0.28178  1.0000
  C   C54       1.0  0.65321  0.98946  0.27838  1.0000
  C   C55       1.0  0.00777  0.65264  0.28111  1.0000
  C   C56       1.0  0.35488  0.01098  0.28115  1.0000
  H   H27       1.0  0.97837  0.36321  0.22888  1.0000
  H   H28       1.0  0.36423  0.01459  0.21953  1.0000
  H   H29       1.0  0.00490  0.64368  0.21889  1.0000
  H   H30       1.0  0.64404  0.97665  0.22535  1.0000
  C   C57       1.0  0.00829  0.52220  0.34244  1.0000
  C   C58       1.0  0.98104  0.54164  0.30297  1.0000
  C   C59       1.0  0.98175  0.57830  0.30355  1.0000
  H   H31       1.0  0.96033  0.52920  0.27371  1.0000
  H   H32       1.0  0.96160  0.59169  0.27486  1.0000
  C   C60       1.0  0.00776  0.48496  0.34037  1.0000
  C   C61       1.0  0.00550  0.41054  0.33568  1.0000
  C   C62       1.0  0.00753  0.43015  0.25582  1.0000
  C   C63       1.0  0.00855  0.46701  0.25696  1.0000
  H   H33       1.0  0.00865  0.41753  0.19551  1.0000
  N   N5        1.0  0.01118  0.48601  0.17568  1.0000
  O   O1        1.0  0.03865  0.47878  0.13391  1.0000
  O   O2        1.0  0.98559  0.48027  0.12517  1.0000
  N   N6        1.0  0.00470  0.37578  0.33744  1.0000
  C   C64       1.0  0.48489  0.00580  0.33899  1.0000
  C   C65       1.0  0.46526  0.97820  0.30124  1.0000
  C   C66       1.0  0.42859  0.97866  0.30317  1.0000
  H   H34       1.0  0.47758  0.95736  0.27255  1.0000
  H   H35       1.0  0.41499  0.95830  0.27579  1.0000
  C   C67       1.0  0.52211  0.00534  0.33672  1.0000
  C   C68       1.0  0.59654  0.00346  0.33202  1.0000
  C   C69       1.0  0.57691  0.00513  0.25214  1.0000
  C   C70       1.0  0.54004  0.00596  0.25329  1.0000
  H   H36       1.0  0.58952  0.00613  0.19179  1.0000
  N   N7        1.0  0.52100  0.00825  0.17205  1.0000
  O   O3        1.0  0.52822  0.03563  0.12971  1.0000
  O   O4        1.0  0.52672  0.98254  0.12202  1.0000
  N   N8        1.0  0.63131  0.00282  0.33392  1.0000
  C   C71       1.0  0.00415  0.18834  0.39009  1.0000
  C   C72       1.0  0.00533  0.15169  0.39330  1.0000
  C   C73       1.0  0.02033  0.26491  0.35161  1.0000
  C   C74       1.0  0.01858  0.30151  0.34562  1.0000
  C   C75       1.0  0.81871  0.00320  0.38875  1.0000
  C   C76       1.0  0.85537  0.00465  0.39226  1.0000
  C   C77       1.0  0.70564  0.01717  0.34237  1.0000
  C   C78       1.0  0.74224  0.01896  0.34893  1.0000
  C   C79       1.0  0.00573  0.85502  0.39500  1.0000
  C   C80       1.0  0.00664  0.81836  0.39214  1.0000
  C   C81       1.0  0.98809  0.70554  0.35620  1.0000
  C   C82       1.0  0.98820  0.74217  0.36240  1.0000
  C   C83       1.0  0.15255  0.00263  0.39466  1.0000
  C   C84       1.0  0.18921  0.00383  0.39159  1.0000
  C   C85       1.0  0.26531  0.98648  0.35564  1.0000
  C   C86       1.0  0.30194  0.98708  0.34935  1.0000
  H   H37       1.0  0.31595  0.96888  0.38412  1.0000
  H   H38       1.0  0.25393  0.96768  0.39459  1.0000
  H   H39       1.0  0.20267  0.00190  0.45058  1.0000
  H   H40       1.0  0.14039  0.99944  0.45521  1.0000
  H   H41       1.0  0.00455  0.86730  0.45585  1.0000
  H   H42       1.0  0.00653  0.80504  0.45155  1.0000
  H   H43       1.0  0.86737  0.00856  0.45273  1.0000
  H   H44       1.0  0.80508  0.00568  0.44733  1.0000
  H   H45       1.0  0.75306  0.03886  0.38522  1.0000
  H   H46       1.0  0.69113  0.03569  0.37458  1.0000
  H   H47       1.0  0.00873  0.13959  0.45382  1.0000
  H   H48       1.0  0.00631  0.20189  0.44892  1.0000
  H   H49       1.0  0.03696  0.31602  0.37864  1.0000
  H   H50       1.0  0.04004  0.25408  0.38837  1.0000
  H   H51       1.0  0.97121  0.75367  0.40612  1.0000
  H   H52       1.0  0.97128  0.69162  0.39580  1.0000
  C   C87       1.0  0.00971  0.59651  0.34385  1.0000
  C   C88       1.0  0.03650  0.57723  0.38521  1.0000
  C   C89       1.0  0.03601  0.54054  0.38364  1.0000
  C   C90       1.0  0.00639  0.46544  0.42139  1.0000
  C   C91       1.0  0.00556  0.42856  0.41783  1.0000
  H   H53       1.0  0.00432  0.41471  0.47642  1.0000
  H   H54       1.0  0.05693  0.58983  0.41529  1.0000
  H   H55       1.0  0.05624  0.52728  0.41238  1.0000
  N   N9        1.0  0.00499  0.48300  0.50492  1.0000
  O   O5        1.0  0.03046  0.47528  0.55389  1.0000
  O   O6        1.0  0.97734  0.47621  0.54660  1.0000
  N   N10       1.0  0.01094  0.63115  0.34675  1.0000
  C   C92       1.0  0.41067  0.00674  0.34308  1.0000
  C   C93       1.0  0.43007  0.03404  0.38218  1.0000
  C   C94       1.0  0.46674  0.03374  0.37934  1.0000
  C   C95       1.0  0.54164  0.00430  0.41775  1.0000
  C   C96       1.0  0.57852  0.00365  0.41417  1.0000
  H   H56       1.0  0.59237  0.00266  0.47279  1.0000
  H   H57       1.0  0.41758  0.05455  0.41186  1.0000
  H   H58       1.0  0.48014  0.05421  0.40686  1.0000
  N   N11       1.0  0.52408  0.00307  0.50131  1.0000
  O   O7        1.0  0.53182  0.02873  0.54977  1.0000
  O   O8        1.0  0.53085  0.97558  0.54353  1.0000
  N   N12       1.0  0.37610  0.00731  0.34722  1.0000
