data_image0
_chemical_formula_structural       C3NC3NC5NC5NC20H18C4H4C3HCH3NC3HCH3NC8H8CN3CN3
_chemical_formula_sum              "C58 N12 H38"
_cell_length_a       25.6041
_cell_length_b       25.6039
_cell_length_c       14.6102
_cell_angle_alpha    90
_cell_angle_beta     90
_cell_angle_gamma    90.0373

_space_group_name_H-M_alt    "P 1"
_space_group_IT_number       1

loop_
  _space_group_symop_operation_xyz
  'x, y, z'

loop_
  _atom_site_type_symbol
  _atom_site_label
  _atom_site_symmetry_multiplicity
  _atom_site_fract_x
  _atom_site_fract_y
  _atom_site_fract_z
  _atom_site_occupancy
  C   C1        1.0  0.91770  0.87552  0.34814  1.0000
  C   C2        1.0  0.87865  0.91270  0.34892  1.0000
  C   C3        1.0  0.90182  0.96212  0.35225  1.0000
  N   N1        1.0  0.95401  0.95277  0.35532  1.0000
  C   C4        1.0  0.96588  0.90109  0.35197  1.0000
  C   C5        1.0  0.01544  0.87571  0.35062  1.0000
  C   C6        1.0  0.06427  0.90241  0.35164  1.0000
  N   N2        1.0  0.07325  0.95453  0.35309  1.0000
  C   C7        1.0  0.12489  0.96604  0.35189  1.0000
  C   C8        1.0  0.15076  0.91807  0.34966  1.0000
  C   C9        1.0  0.11357  0.87901  0.35043  1.0000
  C   C10       1.0  0.14902  0.01611  0.35117  1.0000
  C   C11       1.0  0.12111  0.06433  0.35279  1.0000
  N   N3        1.0  0.06890  0.07359  0.35512  1.0000
  C   C12       1.0  0.05706  0.12528  0.35319  1.0000
  C   C13       1.0  0.10522  0.15094  0.35128  1.0000
  C   C14       1.0  0.14427  0.11380  0.35185  1.0000
  C   C15       1.0  0.00751  0.15065  0.35142  1.0000
  C   C16       1.0  0.95870  0.12402  0.35250  1.0000
  N   N4        1.0  0.94968  0.07193  0.35519  1.0000
  C   C17       1.0  0.89806  0.06045  0.35285  1.0000
  C   C18       1.0  0.87227  0.10846  0.34898  1.0000
  C   C19       1.0  0.90949  0.14750  0.34938  1.0000
  C   C20       1.0  0.87394  0.01037  0.35135  1.0000
  C   C21       1.0  0.81832  0.00856  0.34002  1.0000
  C   C22       1.0  0.70729  0.00370  0.31375  1.0000
  C   C23       1.0  0.74250  0.99500  0.24039  1.0000
  C   C24       1.0  0.79691  0.99760  0.25304  1.0000
  C   C25       1.0  0.00656  0.20626  0.33995  1.0000
  C   C26       1.0  0.00225  0.31727  0.31349  1.0000
  C   C27       1.0  0.99416  0.28206  0.23990  1.0000
  C   C28       1.0  0.99648  0.22765  0.25265  1.0000
  C   C29       1.0  0.20486  0.01822  0.34399  1.0000
  C   C30       1.0  0.22867  0.03235  0.26026  1.0000
  C   C31       1.0  0.28323  0.03818  0.25389  1.0000
  C   C32       1.0  0.31588  0.02904  0.33041  1.0000
  C   C33       1.0  0.01666  0.81983  0.34333  1.0000
  C   C34       1.0  0.03058  0.79583  0.25967  1.0000
  C   C35       1.0  0.02686  0.70874  0.33021  1.0000
  C   C36       1.0  0.03606  0.74123  0.25350  1.0000
  H   H1        1.0  0.04764  0.72546  0.19233  1.0000
  H   H2        1.0  0.03847  0.81817  0.20320  1.0000
  H   H3        1.0  0.91120  0.83618  0.34430  1.0000
  H   H4        1.0  0.83964  0.90426  0.34617  1.0000
  H   H5        1.0  0.97992  0.97998  0.35818  1.0000
  H   H6        1.0  0.04298  0.04635  0.35536  1.0000
  H   H7        1.0  0.12188  0.83999  0.34930  1.0000
  H   H8        1.0  0.19015  0.91179  0.34776  1.0000
  H   H9        1.0  0.20623  0.04005  0.20385  1.0000
  H   H10       1.0  0.29889  0.04977  0.19262  1.0000
  H   H11       1.0  0.18326  0.12236  0.35053  1.0000
  H   H12       1.0  0.11174  0.19032  0.34907  1.0000
  H   H13       1.0  0.83293  0.11476  0.34523  1.0000
  H   H14       1.0  0.90132  0.18652  0.34630  1.0000
  H   H15       1.0  0.99012  0.20366  0.19768  1.0000
  H   H16       1.0  0.98616  0.29571  0.17550  1.0000
  H   H17       1.0  0.82090  0.99095  0.19819  1.0000
  H   H18       1.0  0.72885  0.98643  0.17621  1.0000
  C   C37       1.0  0.99790  0.37095  0.29737  1.0000
  C   C38       1.0  0.36920  0.03842  0.32297  1.0000
  C   C39       1.0  0.03631  0.65543  0.32317  1.0000
  C   C40       1.0  0.65359  0.99924  0.29775  1.0000
  H   H19       1.0  0.98223  0.38191  0.23812  1.0000
  H   H20       1.0  0.38053  0.06981  0.28789  1.0000
  H   H21       1.0  0.06785  0.64414  0.28853  1.0000
  H   H22       1.0  0.64258  0.98302  0.23896  1.0000
  C   C41       1.0  0.01059  0.45920  0.34518  1.0000
  C   C42       1.0  0.00806  0.48667  0.26131  1.0000
  C   C43       1.0  0.00609  0.54190  0.25980  1.0000
  H   H23       1.0  0.00763  0.46646  0.20100  1.0000
  C   C44       1.0  0.00054  0.56995  0.17126  1.0000
  H   H24       1.0  0.99519  0.54330  0.11363  1.0000
  H   H25       1.0  0.03539  0.59316  0.15773  1.0000
  H   H26       1.0  0.96665  0.59575  0.17377  1.0000
  N   N5        1.0  0.01223  0.40711  0.35358  1.0000
  C   C45       1.0  0.56539  0.01253  0.34521  1.0000
  C   C46       1.0  0.53790  0.00957  0.26139  1.0000
  C   C47       1.0  0.48265  0.00771  0.25996  1.0000
  H   H27       1.0  0.55810  0.00874  0.20109  1.0000
  C   C48       1.0  0.45455  0.00170  0.17156  1.0000
  H   H28       1.0  0.48117  0.99602  0.11400  1.0000
  H   H29       1.0  0.43142  0.03651  0.15749  1.0000
  H   H30       1.0  0.42867  0.96786  0.17467  1.0000
  N   N6        1.0  0.61748  0.01417  0.35353  1.0000
  C   C49       1.0  0.78362  0.01777  0.41360  1.0000
  C   C50       1.0  0.72899  0.01550  0.40061  1.0000
  C   C51       1.0  0.01516  0.24093  0.41379  1.0000
  C   C52       1.0  0.01317  0.29557  0.40069  1.0000
  C   C53       1.0  0.29215  0.01355  0.41360  1.0000
  C   C54       1.0  0.23739  0.00851  0.42040  1.0000
  C   C55       1.0  0.00670  0.78744  0.41984  1.0000
  C   C56       1.0  0.01142  0.73263  0.41325  1.0000
  H   H31       1.0  0.00539  0.71047  0.47060  1.0000
  H   H32       1.0  0.99712  0.80370  0.48159  1.0000
  H   H33       1.0  0.22126  0.99865  0.48213  1.0000
  H   H34       1.0  0.31444  0.00745  0.47078  1.0000
  H   H35       1.0  0.02255  0.22655  0.47785  1.0000
  H   H36       1.0  0.01904  0.31938  0.45600  1.0000
  H   H37       1.0  0.70519  0.02186  0.45574  1.0000
  H   H38       1.0  0.79799  0.02592  0.47740  1.0000
  C   C57       1.0  0.00824  0.56878  0.34484  1.0000
  N   N7        1.0  0.01040  0.53966  0.42257  1.0000
  N   N8        1.0  0.01179  0.48845  0.42271  1.0000
  N   N9        1.0  0.00452  0.62053  0.35377  1.0000
  C   C58       1.0  0.45580  0.01040  0.34498  1.0000
  N   N10       1.0  0.48495  0.01297  0.42265  1.0000
  N   N11       1.0  0.53616  0.01427  0.42273  1.0000
  N   N12       1.0  0.40406  0.00679  0.35402  1.0000
