data_image0
_chemical_formula_structural       C3NC3H5C3NC3H5CNHCNHC3NC3H5C3NC3H5CNHCNHC3NC3H5C3NC3H5C3NC3H5C3NC3H5CNHCNHC3NC3H5C3NC3H5CNHCNHC3NC3H5C3NC3H5CNHCNHC3NC3H5C3NC3H5C6H3C6H3C6H3C6H3C6H3C6H3C6H3C6H3C6H3C6H3C6H3C6H3C6H3C6H3C6H3C6H3CNHCNHC3NC3H5C3NC3H5CNHCNHC3NC3H5C3NC3H5CNHCNHCNHCNHC3NC3H5C3NC3H5CNHCNHC3NC3H5C3NC3H5CNHCNHC3NC3H5C3NC3H5CNHCNH
_chemical_formula_sum              "C264 N48 H192"
_cell_length_a       44.2868
_cell_length_b       34.7277
_cell_length_c       14.8629
_cell_angle_alpha    90
_cell_angle_beta     90
_cell_angle_gamma    90

_space_group_name_H-M_alt    "P 1"
_space_group_IT_number       1

loop_
  _space_group_symop_operation_xyz
  'x, y, z'

loop_
  _atom_site_type_symbol
  _atom_site_label
  _atom_site_symmetry_multiplicity
  _atom_site_fract_x
  _atom_site_fract_y
  _atom_site_fract_z
  _atom_site_occupancy
  C   C1        1.0  0.98567  0.98766  0.28604  1.0000
  C   C2        1.0  0.00581  0.96495  0.33919  1.0000
  C   C3        1.0  0.00648  0.04705  0.34216  1.0000
  N   N1        1.0  0.98653  0.02691  0.29099  1.0000
  C   C4        1.0  0.96344  0.97190  0.22132  1.0000
  C   C5        1.0  0.96529  0.98655  0.12354  1.0000
  C   C6        1.0  0.97396  0.94494  0.14521  1.0000
  H   H1        1.0  0.94022  0.96806  0.24437  1.0000
  H   H2        1.0  0.95773  0.92311  0.12395  1.0000
  H   H3        1.0  0.99808  0.93863  0.14118  1.0000
  H   H4        1.0  0.98430  0.00500  0.10517  1.0000
  H   H5        1.0  0.94390  0.98980  0.08786  1.0000
  C   C7        1.0  0.48567  0.48767  0.28550  1.0000
  C   C8        1.0  0.50582  0.46494  0.33859  1.0000
  C   C9        1.0  0.50649  0.54706  0.34161  1.0000
  N   N2        1.0  0.48654  0.52692  0.29047  1.0000
  C   C10       1.0  0.46344  0.47192  0.22078  1.0000
  C   C11       1.0  0.46528  0.48659  0.12302  1.0000
  C   C12       1.0  0.47395  0.44497  0.14463  1.0000
  H   H6        1.0  0.44022  0.46809  0.24384  1.0000
  H   H7        1.0  0.45771  0.42314  0.12338  1.0000
  H   H8        1.0  0.49807  0.43867  0.14058  1.0000
  H   H9        1.0  0.48428  0.50503  0.10464  1.0000
  H   H10       1.0  0.44388  0.48985  0.08736  1.0000
  C   C13       1.0  0.06587  0.20408  0.28462  1.0000
  N   N3        1.0  0.09071  0.22695  0.28658  1.0000
  H   H11       1.0  0.04917  0.21110  0.24007  1.0000
  C   C14       1.0  0.94730  0.80642  0.28838  1.0000
  N   N4        1.0  0.92237  0.78369  0.28958  1.0000
  H   H12       1.0  0.96421  0.79913  0.24480  1.0000
  C   C15       1.0  0.92477  0.16522  0.28507  1.0000
  C   C16       1.0  0.95020  0.17202  0.34208  1.0000
  C   C17       1.0  0.89814  0.22010  0.34409  1.0000
  N   N5        1.0  0.90015  0.18906  0.28858  1.0000
  C   C18       1.0  0.92349  0.13414  0.21698  1.0000
  C   C19       1.0  0.91520  0.14504  0.11953  1.0000
  C   C20       1.0  0.94753  0.13291  0.14212  1.0000
  H   H13       1.0  0.91480  0.10612  0.23799  1.0000
  H   H14       1.0  0.95403  0.10430  0.11870  1.0000
  H   H15       1.0  0.96411  0.15618  0.14036  1.0000
  H   H16       1.0  0.91255  0.17556  0.10360  1.0000
  H   H17       1.0  0.90221  0.12379  0.08168  1.0000
  C   C21       1.0  0.08787  0.84555  0.28908  1.0000
  C   C22       1.0  0.06263  0.83942  0.34719  1.0000
  C   C23       1.0  0.11474  0.79144  0.35101  1.0000
  N   N6        1.0  0.11251  0.82180  0.29351  1.0000
  C   C24       1.0  0.08883  0.87572  0.21876  1.0000
  C   C25       1.0  0.09675  0.86357  0.12186  1.0000
  C   C26       1.0  0.06448  0.87588  0.14472  1.0000
  H   H18       1.0  0.09755  0.90403  0.23746  1.0000
  H   H19       1.0  0.05783  0.90414  0.11940  1.0000
  H   H20       1.0  0.04796  0.85254  0.14515  1.0000
  H   H21       1.0  0.09942  0.83286  0.10805  1.0000
  H   H22       1.0  0.10954  0.88434  0.08205  1.0000
  C   C27       1.0  0.56576  0.70401  0.28314  1.0000
  N   N7        1.0  0.59061  0.72689  0.28440  1.0000
  H   H23       1.0  0.54898  0.71097  0.23883  1.0000
  C   C28       1.0  0.44740  0.30648  0.28678  1.0000
  N   N8        1.0  0.42246  0.28379  0.28728  1.0000
  H   H24       1.0  0.46440  0.29923  0.24345  1.0000
  C   C29       1.0  0.42464  0.66531  0.28560  1.0000
  C   C30       1.0  0.45021  0.67205  0.34213  1.0000
  C   C31       1.0  0.39810  0.72006  0.34565  1.0000
  N   N9        1.0  0.40001  0.68911  0.28979  1.0000
  C   C32       1.0  0.42325  0.63434  0.21725  1.0000
  C   C33       1.0  0.41472  0.64536  0.12007  1.0000
  C   C34       1.0  0.44713  0.63332  0.14191  1.0000
  H   H25       1.0  0.41469  0.60625  0.23821  1.0000
  H   H26       1.0  0.45365  0.60477  0.11811  1.0000
  H   H27       1.0  0.46365  0.65666  0.14003  1.0000
  H   H28       1.0  0.41195  0.67590  0.10447  1.0000
  H   H29       1.0  0.40169  0.62413  0.08231  1.0000
  C   C35       1.0  0.58804  0.34548  0.28944  1.0000
  C   C36       1.0  0.56265  0.33939  0.34702  1.0000
  C   C37       1.0  0.61479  0.29148  0.35232  1.0000
  N   N10       1.0  0.61270  0.32176  0.29454  1.0000
  C   C38       1.0  0.58913  0.37555  0.21890  1.0000
  C   C39       1.0  0.59732  0.36330  0.12226  1.0000
  C   C40       1.0  0.56495  0.37550  0.14435  1.0000
  H   H30       1.0  0.59769  0.40393  0.23758  1.0000
  H   H31       1.0  0.55828  0.40369  0.11870  1.0000
  H   H32       1.0  0.54849  0.35208  0.14461  1.0000
  H   H33       1.0  0.60011  0.33259  0.10877  1.0000
  H   H34       1.0  0.61014  0.38408  0.08259  1.0000
  C   C41       1.0  0.36253  0.09275  0.28362  1.0000
  C   C42       1.0  0.38127  0.07745  0.35251  1.0000
  C   C43       1.0  0.36600  0.15534  0.34939  1.0000
  N   N11       1.0  0.35531  0.13081  0.28574  1.0000
  C   C44       1.0  0.35100  0.07005  0.20652  1.0000
  C   C45       1.0  0.35256  0.08675  0.11060  1.0000
  C   C46       1.0  0.37432  0.05466  0.13842  1.0000
  H   H35       1.0  0.33223  0.05036  0.21881  1.0000
  H   H36       1.0  0.36954  0.02649  0.10908  1.0000
  H   H37       1.0  0.39777  0.06384  0.14608  1.0000
  H   H38       1.0  0.36298  0.11502  0.10218  1.0000
  H   H39       1.0  0.33460  0.07794  0.06472  1.0000
  C   C47       1.0  0.65136  0.91930  0.28790  1.0000
  C   C48       1.0  0.63020  0.93396  0.35108  1.0000
  C   C49       1.0  0.64599  0.85611  0.34969  1.0000
  N   N12       1.0  0.65863  0.88127  0.29067  1.0000
  C   C50       1.0  0.66545  0.94257  0.21566  1.0000
  C   C51       1.0  0.66729  0.92662  0.11910  1.0000
  C   C52       1.0  0.64446  0.95826  0.14155  1.0000
  H   H40       1.0  0.68360  0.96228  0.23436  1.0000
  H   H41       1.0  0.64996  0.98673  0.11506  1.0000
  H   H42       1.0  0.62097  0.94875  0.14205  1.0000
  H   H43       1.0  0.65742  0.89832  0.10640  1.0000
  H   H44       1.0  0.68664  0.93598  0.07924  1.0000
  C   C53       1.0  0.62508  0.10447  0.26072  1.0000
  N   N13       1.0  0.63201  0.14224  0.26824  1.0000
  H   H45       1.0  0.61347  0.09581  0.20474  1.0000
  C   C54       1.0  0.39109  0.90674  0.25812  1.0000
  N   N14       1.0  0.38380  0.86902  0.26407  1.0000
  H   H46       1.0  0.40467  0.91508  0.20597  1.0000
  C   C55       1.0  0.86274  0.59318  0.28507  1.0000
  C   C56       1.0  0.88127  0.57738  0.35381  1.0000
  C   C57       1.0  0.86610  0.65528  0.35321  1.0000
  N   N15       1.0  0.85552  0.63121  0.28844  1.0000
  C   C58       1.0  0.85145  0.57100  0.20684  1.0000
  C   C59       1.0  0.85322  0.58837  0.11162  1.0000
  C   C60       1.0  0.87500  0.55619  0.13875  1.0000
  H   H47       1.0  0.83272  0.55110  0.21796  1.0000
  H   H48       1.0  0.87039  0.52822  0.10819  1.0000
  H   H49       1.0  0.89840  0.56544  0.14729  1.0000
  H   H50       1.0  0.86357  0.61675  0.10454  1.0000
  H   H51       1.0  0.83541  0.57981  0.06497  1.0000
  C   C61       1.0  0.15157  0.41910  0.29232  1.0000
  C   C62       1.0  0.13006  0.43396  0.35420  1.0000
  C   C63       1.0  0.14584  0.35611  0.35492  1.0000
  N   N16       1.0  0.15881  0.38108  0.29610  1.0000
  C   C64       1.0  0.16600  0.44208  0.22021  1.0000
  C   C65       1.0  0.16824  0.42574  0.12407  1.0000
  C   C66       1.0  0.14538  0.45755  0.14492  1.0000
  H   H52       1.0  0.18412  0.46180  0.23920  1.0000
  H   H53       1.0  0.15106  0.48590  0.11806  1.0000
  H   H54       1.0  0.12187  0.44813  0.14468  1.0000
  H   H55       1.0  0.15837  0.39743  0.11157  1.0000
  H   H56       1.0  0.18779  0.43488  0.08479  1.0000
  C   C67       1.0  0.12679  0.60332  0.25718  1.0000
  N   N17       1.0  0.13354  0.64120  0.26344  1.0000
  H   H57       1.0  0.11636  0.59390  0.19983  1.0000
  C   C68       1.0  0.89115  0.40713  0.25510  1.0000
  N   N18       1.0  0.88384  0.36939  0.26016  1.0000
  H   H58       1.0  0.90458  0.41572  0.20283  1.0000
  C   C69       1.0  0.52036  0.98719  0.25591  1.0000
  C   C70       1.0  0.53739  0.00749  0.32141  1.0000
  C   C71       1.0  0.47512  0.00680  0.32818  1.0000
  N   N19       1.0  0.48987  0.98722  0.26268  1.0000
  C   C72       1.0  0.53360  0.96607  0.17887  1.0000
  C   C73       1.0  0.52134  0.97459  0.08393  1.0000
  C   C74       1.0  0.55273  0.98897  0.11081  1.0000
  H   H59       1.0  0.54091  0.93639  0.18936  1.0000
  H   H60       1.0  0.57138  0.97360  0.07903  1.0000
  H   H61       1.0  0.55437  0.02011  0.11992  1.0000
  H   H62       1.0  0.50428  0.99712  0.07719  1.0000
  H   H63       1.0  0.52120  0.95044  0.03693  1.0000
  C   C75       1.0  0.02051  0.48687  0.25494  1.0000
  C   C76       1.0  0.03756  0.50780  0.31930  1.0000
  C   C77       1.0  0.97524  0.50711  0.32623  1.0000
  N   N20       1.0  0.99002  0.48693  0.26176  1.0000
  C   C78       1.0  0.03376  0.46489  0.17922  1.0000
  C   C79       1.0  0.02166  0.47271  0.08378  1.0000
  C   C80       1.0  0.05318  0.48682  0.11016  1.0000
  H   H64       1.0  0.04065  0.43515  0.19122  1.0000
  H   H65       1.0  0.07170  0.47083  0.07945  1.0000
  H   H66       1.0  0.05514  0.51800  0.11777  1.0000
  H   H67       1.0  0.00484  0.49546  0.07573  1.0000
  H   H68       1.0  0.02131  0.44814  0.03800  1.0000
  C   C81       1.0  0.26782  0.23264  0.28715  1.0000
  N   N21       1.0  0.23733  0.23610  0.29339  1.0000
  H   H69       1.0  0.27614  0.21477  0.23843  1.0000
  C   C82       1.0  0.74465  0.77941  0.28827  1.0000
  N   N22       1.0  0.77514  0.77588  0.29431  1.0000
  H   H70       1.0  0.73632  0.79738  0.23978  1.0000
  C   C83       1.0  0.73913  0.27643  0.27874  1.0000
  C   C84       1.0  0.72503  0.25304  0.34496  1.0000
  C   C85       1.0  0.78848  0.25872  0.33245  1.0000
  N   N23       1.0  0.76980  0.27888  0.27695  1.0000
  C   C86       1.0  0.72262  0.29901  0.21006  1.0000
  C   C87       1.0  0.73280  0.29661  0.11110  1.0000
  C   C88       1.0  0.70350  0.27693  0.14050  1.0000
  H   H71       1.0  0.71326  0.32682  0.22996  1.0000
  H   H72       1.0  0.68279  0.29108  0.11835  1.0000
  H   H73       1.0  0.70447  0.24550  0.14188  1.0000
  H   H74       1.0  0.75126  0.27696  0.09481  1.0000
  H   H75       1.0  0.72981  0.32267  0.07101  1.0000
  C   C89       1.0  0.27325  0.73463  0.27771  1.0000
  C   C90       1.0  0.28787  0.75850  0.34196  1.0000
  C   C91       1.0  0.22432  0.75280  0.33401  1.0000
  N   N24       1.0  0.24258  0.73220  0.27813  1.0000
  C   C92       1.0  0.28924  0.71150  0.20895  1.0000
  C   C93       1.0  0.27834  0.71312  0.11060  1.0000
  C   C94       1.0  0.30785  0.73302  0.13723  1.0000
  H   H76       1.0  0.29876  0.68385  0.22945  1.0000
  H   H77       1.0  0.32839  0.71868  0.11434  1.0000
  H   H78       1.0  0.30689  0.76445  0.13730  1.0000
  H   H79       1.0  0.25976  0.73264  0.09467  1.0000
  H   H80       1.0  0.28104  0.68674  0.07146  1.0000
  C   C95       1.0  0.97822  0.15031  0.34157  1.0000
  C   C96       1.0  0.00647  0.16970  0.34253  1.0000
  C   C97       1.0  0.03474  0.15036  0.34384  1.0000
  C   C98       1.0  0.03398  0.10949  0.34427  1.0000
  C   C99       1.0  0.00653  0.08837  0.34294  1.0000
  C   C100      1.0  0.97905  0.10945  0.34153  1.0000
  H   H81       1.0  0.05394  0.09470  0.34190  1.0000
  H   H82       1.0  0.95912  0.09462  0.34405  1.0000
  H   H83       1.0  0.00646  0.19917  0.34232  1.0000
  C   C101      1.0  0.03455  0.86099  0.34570  1.0000
  C   C102      1.0  0.00643  0.84138  0.34665  1.0000
  C   C103      1.0  0.97812  0.86053  0.34674  1.0000
  C   C104      1.0  0.97878  0.90137  0.34539  1.0000
  C   C105      1.0  0.00600  0.92307  0.34235  1.0000
  C   C106      1.0  0.03351  0.90185  0.34383  1.0000
  H   H84       1.0  0.95869  0.91571  0.34617  1.0000
  H   H85       1.0  0.05348  0.91659  0.34340  1.0000
  H   H86       1.0  0.00657  0.81191  0.34762  1.0000
  C   C107      1.0  0.47822  0.65033  0.34120  1.0000
  C   C108      1.0  0.50648  0.66971  0.34205  1.0000
  C   C109      1.0  0.53476  0.65038  0.34321  1.0000
  C   C110      1.0  0.53400  0.60951  0.34376  1.0000
  C   C111      1.0  0.50654  0.58838  0.34242  1.0000
  C   C112      1.0  0.47907  0.60947  0.34107  1.0000
  H   H87       1.0  0.55395  0.59471  0.34117  1.0000
  H   H88       1.0  0.45914  0.59463  0.34363  1.0000
  H   H89       1.0  0.50647  0.69918  0.34182  1.0000
  C   C113      1.0  0.53457  0.36098  0.34510  1.0000
  C   C114      1.0  0.50645  0.34137  0.34592  1.0000
  C   C115      1.0  0.47812  0.36051  0.34595  1.0000
  C   C116      1.0  0.47879  0.40135  0.34471  1.0000
  C   C117      1.0  0.50602  0.42306  0.34172  1.0000
  C   C118      1.0  0.53353  0.40183  0.34320  1.0000
  H   H90       1.0  0.45870  0.41569  0.34546  1.0000
  H   H91       1.0  0.55349  0.41657  0.34284  1.0000
  H   H92       1.0  0.50659  0.31190  0.34687  1.0000
  C   C119      1.0  0.44363  0.00630  0.33157  1.0000
  C   C120      1.0  0.42788  0.97137  0.32508  1.0000
  C   C121      1.0  0.39600  0.97026  0.32802  1.0000
  C   C122      1.0  0.38004  0.00540  0.33842  1.0000
  C   C123      1.0  0.39564  0.04092  0.34599  1.0000
  C   C124      1.0  0.42749  0.04075  0.34184  1.0000
  H   H93       1.0  0.35696  0.00515  0.34069  1.0000
  H   H94       1.0  0.43920  0.06624  0.34354  1.0000
  H   H95       1.0  0.43999  0.94624  0.32118  1.0000
  C   C125      1.0  0.56915  0.00695  0.32447  1.0000
  C   C126      1.0  0.58551  0.04154  0.32414  1.0000
  C   C127      1.0  0.61731  0.04169  0.33058  1.0000
  C   C128      1.0  0.63261  0.00611  0.34112  1.0000
  C   C129      1.0  0.61642  0.97087  0.34310  1.0000
  C   C130      1.0  0.58470  0.97195  0.33346  1.0000
  H   H96       1.0  0.65560  0.00592  0.34777  1.0000
  H   H97       1.0  0.57252  0.94685  0.33440  1.0000
  H   H98       1.0  0.57393  0.06704  0.31936  1.0000
  C   C131      1.0  0.94373  0.50651  0.33000  1.0000
  C   C132      1.0  0.92799  0.47158  0.32290  1.0000
  C   C133      1.0  0.89612  0.47037  0.32636  1.0000
  C   C134      1.0  0.88013  0.50543  0.33780  1.0000
  C   C135      1.0  0.89570  0.54093  0.34616  1.0000
  C   C136      1.0  0.92753  0.54087  0.34153  1.0000
  H   H99       1.0  0.85705  0.50513  0.34032  1.0000
  H   H100      1.0  0.93919  0.56639  0.34379  1.0000
  H   H101      1.0  0.94012  0.44650  0.31817  1.0000
  C   C137      1.0  0.06931  0.50710  0.32286  1.0000
  C   C138      1.0  0.08581  0.54159  0.32163  1.0000
  C   C139      1.0  0.11754  0.54159  0.33004  1.0000
  C   C140      1.0  0.13268  0.50605  0.34278  1.0000
  C   C141      1.0  0.11639  0.47090  0.34497  1.0000
  C   C142      1.0  0.08471  0.47208  0.33396  1.0000
  H   H102      1.0  0.15562  0.50583  0.35083  1.0000
  H   H103      1.0  0.07245  0.44706  0.33536  1.0000
  H   H104      1.0  0.07437  0.56714  0.31521  1.0000
  C   C143      1.0  0.15334  0.31669  0.35362  1.0000
  C   C144      1.0  0.13098  0.28774  0.35021  1.0000
  C   C145      1.0  0.13857  0.24808  0.34727  1.0000
  C   C146      1.0  0.16973  0.23808  0.35006  1.0000
  C   C147      1.0  0.19266  0.26676  0.35475  1.0000
  C   C148      1.0  0.18390  0.30583  0.35525  1.0000
  H   H105      1.0  0.17581  0.20966  0.34827  1.0000
  H   H106      1.0  0.20007  0.32698  0.35712  1.0000
  H   H107      1.0  0.10874  0.29587  0.34898  1.0000
  C   C149      1.0  0.85883  0.69468  0.35206  1.0000
  C   C150      1.0  0.88136  0.72339  0.34958  1.0000
  C   C151      1.0  0.87399  0.76313  0.34771  1.0000
  C   C152      1.0  0.84287  0.77336  0.35079  1.0000
  C   C153      1.0  0.81979  0.74486  0.35466  1.0000
  C   C154      1.0  0.82834  0.70571  0.35396  1.0000
  H   H108      1.0  0.83693  0.80184  0.34992  1.0000
  H   H109      1.0  0.81209  0.68463  0.35524  1.0000
  H   H110      1.0  0.90355  0.71501  0.34855  1.0000
  C   C155      1.0  0.85937  0.31623  0.33185  1.0000
  C   C156      1.0  0.88175  0.28734  0.33490  1.0000
  C   C157      1.0  0.87416  0.24771  0.33882  1.0000
  C   C158      1.0  0.84297  0.23773  0.33721  1.0000
  C   C159      1.0  0.82003  0.26642  0.33281  1.0000
  C   C160      1.0  0.82881  0.30549  0.33139  1.0000
  H   H111      1.0  0.83688  0.20932  0.33964  1.0000
  H   H112      1.0  0.81268  0.32670  0.32968  1.0000
  H   H113      1.0  0.90399  0.29551  0.33491  1.0000
  C   C161      1.0  0.15354  0.69528  0.34200  1.0000
  C   C162      1.0  0.13113  0.72410  0.34564  1.0000
  C   C163      1.0  0.13871  0.76377  0.34657  1.0000
  C   C164      1.0  0.16987  0.77375  0.34196  1.0000
  C   C165      1.0  0.19280  0.74506  0.33716  1.0000
  C   C166      1.0  0.18406  0.70598  0.33802  1.0000
  H   H114      1.0  0.17594  0.80218  0.34223  1.0000
  H   H115      1.0  0.20017  0.68473  0.33570  1.0000
  H   H116      1.0  0.10891  0.71586  0.34717  1.0000
  C   C167      1.0  0.65346  0.81668  0.34729  1.0000
  C   C168      1.0  0.63107  0.78776  0.34593  1.0000
  C   C169      1.0  0.63863  0.74812  0.34336  1.0000
  C   C170      1.0  0.66980  0.73814  0.34441  1.0000
  C   C171      1.0  0.69293  0.76671  0.34464  1.0000
  C   C172      1.0  0.68400  0.80577  0.34616  1.0000
  H   H117      1.0  0.67571  0.70971  0.34124  1.0000
  H   H118      1.0  0.70010  0.82695  0.34999  1.0000
  H   H119      1.0  0.60882  0.79589  0.34628  1.0000
  C   C173      1.0  0.35875  0.19476  0.34672  1.0000
  C   C174      1.0  0.38129  0.22346  0.34614  1.0000
  C   C175      1.0  0.37394  0.26316  0.34384  1.0000
  C   C176      1.0  0.34281  0.27337  0.34443  1.0000
  C   C177      1.0  0.31953  0.24498  0.34398  1.0000
  C   C178      1.0  0.32827  0.20584  0.34519  1.0000
  H   H120      1.0  0.33703  0.30185  0.34163  1.0000
  H   H121      1.0  0.31209  0.18474  0.34853  1.0000
  H   H122      1.0  0.40349  0.21510  0.34707  1.0000
  C   C179      1.0  0.35925  0.81615  0.33684  1.0000
  C   C180      1.0  0.38164  0.78727  0.33777  1.0000
  C   C181      1.0  0.37408  0.74765  0.34156  1.0000
  C   C182      1.0  0.34290  0.73771  0.34201  1.0000
  C   C183      1.0  0.31977  0.76630  0.34215  1.0000
  C   C184      1.0  0.32871  0.80535  0.33949  1.0000
  H   H123      1.0  0.33698  0.70929  0.34591  1.0000
  H   H124      1.0  0.31264  0.82657  0.33594  1.0000
  H   H125      1.0  0.40388  0.79544  0.33605  1.0000
  C   C185      1.0  0.65367  0.19539  0.34666  1.0000
  C   C186      1.0  0.63125  0.22421  0.34753  1.0000
  C   C187      1.0  0.63881  0.26386  0.34912  1.0000
  C   C188      1.0  0.66999  0.27381  0.34752  1.0000
  C   C189      1.0  0.69314  0.24523  0.34765  1.0000
  C   C190      1.0  0.68421  0.20616  0.34699  1.0000
  H   H126      1.0  0.67592  0.30225  0.34965  1.0000
  H   H127      1.0  0.70026  0.18490  0.34320  1.0000
  H   H128      1.0  0.60901  0.21600  0.34667  1.0000
  C   C191      1.0  0.02662  0.98674  0.39111  1.0000
  N   N25       1.0  0.02652  0.02596  0.39088  1.0000
  H   H129      1.0  0.04191  0.97337  0.43201  1.0000
  C   C192      1.0  0.52665  0.48674  0.39049  1.0000
  N   N26       1.0  0.52654  0.52596  0.39028  1.0000
  H   H130      1.0  0.54194  0.47336  0.43135  1.0000
  C   C193      1.0  0.08793  0.16574  0.40137  1.0000
  C   C194      1.0  0.06270  0.17216  0.34336  1.0000
  C   C195      1.0  0.11464  0.22042  0.34174  1.0000
  N   N27       1.0  0.11249  0.18966  0.39805  1.0000
  C   C196      1.0  0.08890  0.13516  0.47071  1.0000
  C   C197      1.0  0.09694  0.14659  0.56800  1.0000
  C   C198      1.0  0.06457  0.13480  0.54484  1.0000
  H   H131      1.0  0.09730  0.10684  0.45090  1.0000
  H   H132      1.0  0.05773  0.10646  0.56919  1.0000
  H   H133      1.0  0.04822  0.15834  0.54532  1.0000
  H   H134      1.0  0.09984  0.17717  0.58285  1.0000
  H   H135      1.0  0.10961  0.12542  0.60700  1.0000
  C   C199      1.0  0.92461  0.84550  0.40268  1.0000
  C   C200      1.0  0.95019  0.83864  0.34634  1.0000
  C   C201      1.0  0.89811  0.79060  0.34323  1.0000
  N   N28       1.0  0.89999  0.82168  0.39864  1.0000
  C   C202      1.0  0.92315  0.87663  0.47062  1.0000
  C   C203      1.0  0.91492  0.86563  0.56805  1.0000
  C   C204      1.0  0.94715  0.87822  0.54557  1.0000
  H   H136      1.0  0.91409  0.90446  0.44963  1.0000
  H   H137      1.0  0.95339  0.90692  0.56905  1.0000
  H   H138      1.0  0.96393  0.85518  0.54745  1.0000
  H   H139      1.0  0.91255  0.83508  0.58403  1.0000
  H   H140      1.0  0.90175  0.88669  0.60588  1.0000
  C   C205      1.0  0.94715  0.20421  0.40006  1.0000
  N   N29       1.0  0.92226  0.22697  0.39831  1.0000
  H   H141      1.0  0.96396  0.21150  0.44398  1.0000
  C   C206      1.0  0.06584  0.80790  0.40709  1.0000
  N   N30       1.0  0.09075  0.78515  0.40614  1.0000
  H   H142      1.0  0.04911  0.80106  0.45167  1.0000
  C   C207      1.0  0.58808  0.66588  0.39981  1.0000
  C   C208      1.0  0.56273  0.67218  0.34219  1.0000
  C   C209      1.0  0.61466  0.72046  0.33915  1.0000
  N   N31       1.0  0.61265  0.68978  0.39578  1.0000
  C   C210      1.0  0.58922  0.63536  0.46925  1.0000
  C   C211      1.0  0.59754  0.64683  0.56631  1.0000
  C   C212      1.0  0.56509  0.63513  0.54394  1.0000
  H   H143      1.0  0.59749  0.60699  0.44933  1.0000
  H   H144      1.0  0.55825  0.60684  0.56856  1.0000
  H   H145      1.0  0.54878  0.65873  0.54470  1.0000
  H   H146      1.0  0.60055  0.67741  0.58095  1.0000
  H   H147      1.0  0.61027  0.62564  0.60506  1.0000
  C   C213      1.0  0.42448  0.34540  0.40095  1.0000
  C   C214      1.0  0.45019  0.33861  0.34506  1.0000
  C   C215      1.0  0.39808  0.29062  0.34045  1.0000
  N   N32       1.0  0.39985  0.32161  0.39621  1.0000
  C   C216      1.0  0.42291  0.37640  0.46916  1.0000
  C   C217      1.0  0.41442  0.36527  0.56631  1.0000
  C   C218      1.0  0.44674  0.37777  0.54461  1.0000
  H   H148      1.0  0.41398  0.40431  0.44822  1.0000
  H   H149      1.0  0.45299  0.40641  0.56849  1.0000
  H   H150      1.0  0.46346  0.35467  0.54661  1.0000
  H   H151      1.0  0.41193  0.33470  0.58194  1.0000
  H   H152      1.0  0.40121  0.38632  0.60405  1.0000
  C   C219      1.0  0.44726  0.70413  0.40049  1.0000
  N   N33       1.0  0.42233  0.72684  0.39945  1.0000
  H   H153      1.0  0.46414  0.71136  0.44422  1.0000
  C   C220      1.0  0.56575  0.30797  0.40723  1.0000
  N   N34       1.0  0.59069  0.28527  0.40703  1.0000
  H   H154      1.0  0.54895  0.30120  0.45163  1.0000
  C   C221      1.0  0.39106  0.10355  0.41981  1.0000
  N   N35       1.0  0.38376  0.14132  0.41584  1.0000
  H   H155      1.0  0.40525  0.09485  0.47016  1.0000
  C   C222      1.0  0.61837  0.90728  0.41411  1.0000
  N   N36       1.0  0.62598  0.86959  0.41089  1.0000
  H   H156      1.0  0.60262  0.91552  0.46062  1.0000
  C   C223      1.0  0.64683  0.09345  0.40755  1.0000
  C   C224      1.0  0.63173  0.07824  0.33104  1.0000
  C   C225      1.0  0.64626  0.15614  0.34192  1.0000
  N   N37       1.0  0.65398  0.13155  0.40913  1.0000
  C   C226      1.0  0.65468  0.07041  0.48812  1.0000
  C   C227      1.0  0.64871  0.08665  0.58291  1.0000
  C   C228      1.0  0.62839  0.05481  0.54551  1.0000
  H   H157      1.0  0.67376  0.05061  0.48308  1.0000
  H   H158      1.0  0.63170  0.02650  0.57587  1.0000
  H   H159      1.0  0.60554  0.06417  0.52858  1.0000
  H   H160      1.0  0.63808  0.11495  0.58769  1.0000
  H   H161      1.0  0.66436  0.07753  0.63551  1.0000
  C   C229      1.0  0.36391  0.91850  0.39629  1.0000
  C   C230      1.0  0.38204  0.93331  0.32537  1.0000
  C   C231      1.0  0.36671  0.85547  0.33255  1.0000
  N   N38       1.0  0.35663  0.88045  0.39613  1.0000
  C   C232      1.0  0.35298  0.94162  0.47348  1.0000
  C   C233      1.0  0.35577  0.92559  0.56977  1.0000
  C   C234      1.0  0.37677  0.95798  0.53883  1.0000
  H   H162      1.0  0.33372  0.96067  0.46238  1.0000
  H   H163      1.0  0.37190  0.98624  0.56753  1.0000
  H   H164      1.0  0.40025  0.94930  0.52913  1.0000
  H   H165      1.0  0.36668  0.89763  0.57823  1.0000
  H   H166      1.0  0.33818  0.93430  0.61702  1.0000
  C   C235      1.0  0.89094  0.60298  0.42229  1.0000
  N   N39       1.0  0.88369  0.64079  0.41951  1.0000
  H   H167      1.0  0.90508  0.59394  0.47243  1.0000
  C   C236      1.0  0.11789  0.40749  0.41715  1.0000
  N   N40       1.0  0.12550  0.36979  0.41492  1.0000
  H   H168      1.0  0.10187  0.41587  0.46269  1.0000
  C   C237      1.0  0.14537  0.59425  0.40861  1.0000
  C   C238      1.0  0.13205  0.57803  0.33034  1.0000
  C   C239      1.0  0.14611  0.65605  0.33882  1.0000
  N   N41       1.0  0.15240  0.63239  0.40906  1.0000
  C   C240      1.0  0.15146  0.57215  0.49192  1.0000
  C   C241      1.0  0.14375  0.58954  0.58446  1.0000
  C   C242      1.0  0.12392  0.55755  0.54541  1.0000
  H   H169      1.0  0.17038  0.55198  0.49141  1.0000
  H   H170      1.0  0.12634  0.52957  0.57807  1.0000
  H   H171      1.0  0.10153  0.56704  0.52397  1.0000
  H   H172      1.0  0.13332  0.61803  0.58560  1.0000
  H   H173      1.0  0.15823  0.58082  0.64029  1.0000
  C   C243      1.0  0.86419  0.41826  0.39389  1.0000
  C   C244      1.0  0.88217  0.43343  0.32302  1.0000
  C   C245      1.0  0.86687  0.35554  0.32860  1.0000
  N   N42       1.0  0.85691  0.38021  0.39294  1.0000
  C   C246      1.0  0.85344  0.44101  0.47189  1.0000
  C   C247      1.0  0.85642  0.42449  0.56768  1.0000
  C   C248      1.0  0.87739  0.45699  0.53722  1.0000
  H   H174      1.0  0.83418  0.46015  0.46168  1.0000
  H   H175      1.0  0.87261  0.48512  0.56678  1.0000
  H   H176      1.0  0.90084  0.44833  0.52681  1.0000
  H   H177      1.0  0.86732  0.39646  0.57518  1.0000
  H   H178      1.0  0.83895  0.43299  0.61550  1.0000
  C   C249      1.0  0.52142  0.02796  0.38836  1.0000
  N   N43       1.0  0.49098  0.02721  0.38979  1.0000
  H   H179      1.0  0.53241  0.04294  0.43775  1.0000
  C   C250      1.0  0.02158  0.52888  0.38519  1.0000
  N   N44       1.0  0.99113  0.52809  0.38675  1.0000
  H   H180      1.0  0.03256  0.54427  0.43391  1.0000
  C   C251      1.0  0.27341  0.27669  0.41075  1.0000
  C   C252      1.0  0.28767  0.25304  0.34534  1.0000
  C   C253      1.0  0.22419  0.25900  0.35597  1.0000
  N   N45       1.0  0.24274  0.27926  0.41164  1.0000
  C   C254      1.0  0.28975  0.29943  0.47949  1.0000
  C   C255      1.0  0.27922  0.29747  0.57818  1.0000
  C   C256      1.0  0.30854  0.27749  0.55007  1.0000
  H   H181      1.0  0.29930  0.32710  0.45930  1.0000
  H   H182      1.0  0.32923  0.29160  0.57257  1.0000
  H   H183      1.0  0.30746  0.24607  0.54931  1.0000
  H   H184      1.0  0.26063  0.27800  0.59430  1.0000
  H   H185      1.0  0.28218  0.32366  0.61781  1.0000
  C   C257      1.0  0.73909  0.73500  0.41118  1.0000
  C   C258      1.0  0.72482  0.75883  0.34615  1.0000
  C   C259      1.0  0.78829  0.75280  0.35650  1.0000
  N   N46       1.0  0.76975  0.73241  0.41192  1.0000
  C   C260      1.0  0.72276  0.71204  0.47956  1.0000
  C   C261      1.0  0.73326  0.71386  0.57830  1.0000
  C   C262      1.0  0.70386  0.73371  0.55034  1.0000
  H   H186      1.0  0.71335  0.68433  0.45904  1.0000
  H   H187      1.0  0.68322  0.71942  0.57259  1.0000
  H   H188      1.0  0.70482  0.76514  0.54993  1.0000
  H   H189      1.0  0.75176  0.73342  0.59470  1.0000
  H   H190      1.0  0.73038  0.68757  0.61762  1.0000
  C   C263      1.0  0.74501  0.23271  0.40287  1.0000
  N   N47       1.0  0.77549  0.23605  0.39573  1.0000
  H   H191      1.0  0.73680  0.21503  0.45211  1.0000
  C   C264      1.0  0.26834  0.77928  0.40040  1.0000
  N   N48       1.0  0.23783  0.77590  0.39549  1.0000
  H   H192      1.0  0.27694  0.79729  0.44838  1.0000
