data_image0
_chemical_formula_structural       C2NCOCH3C2NCOCH3C2NCOCH3NCHNCHNCHNCHNCHNCHNC18H12NC18H12NC18H12NC18H12NC18H12NC18H12NCHNCHNCHC2NCOCH3C2NCOCH3C2NCOCH3C2NCOCH3C2NCOCH3C2NCOCH3
_chemical_formula_sum              "C153 N24 O9 H108"
_cell_length_a       52.3508
_cell_length_b       52.3508
_cell_length_c       14.8776
_cell_angle_alpha    90
_cell_angle_beta     90
_cell_angle_gamma    120

_space_group_name_H-M_alt    "P 1"
_space_group_IT_number       1

loop_
  _space_group_symop_operation_xyz
  'x, y, z'

loop_
  _atom_site_type_symbol
  _atom_site_label
  _atom_site_symmetry_multiplicity
  _atom_site_fract_x
  _atom_site_fract_y
  _atom_site_fract_z
  _atom_site_occupancy
  C   C1        1.0  0.03740  0.51993  0.33798  1.0000
  C   C2        1.0  0.97486  0.48769  0.34726  1.0000
  N   N1        1.0  0.98979  0.50462  0.27515  1.0000
  C   C3        1.0  0.01971  0.52018  0.26597  1.0000
  O   O1        1.0  0.03156  0.53824  0.19279  1.0000
  C   C4        1.0  0.02335  0.52331  0.10745  1.0000
  H   H1        1.0  0.99977  0.51380  0.09467  1.0000
  H   H2        1.0  0.02917  0.50599  0.10349  1.0000
  H   H3        1.0  0.03535  0.53944  0.05493  1.0000
  C   C5        1.0  0.49034  0.51955  0.33804  1.0000
  C   C6        1.0  0.52259  0.48927  0.34717  1.0000
  N   N2        1.0  0.50551  0.48713  0.27534  1.0000
  C   C7        1.0  0.48992  0.50146  0.26626  1.0000
  O   O2        1.0  0.47173  0.49514  0.19337  1.0000
  C   C8        1.0  0.48651  0.50173  0.10779  1.0000
  H   H4        1.0  0.49599  0.48763  0.09500  1.0000
  H   H5        1.0  0.50382  0.52487  0.10343  1.0000
  H   H6        1.0  0.47028  0.49752  0.05551  1.0000
  C   C9        1.0  0.49074  0.97285  0.33815  1.0000
  C   C10       1.0  0.52102  0.03538  0.34736  1.0000
  N   N3        1.0  0.52298  0.02044  0.27521  1.0000
  C   C11       1.0  0.50863  0.99052  0.26606  1.0000
  O   O3        1.0  0.51480  0.97867  0.19283  1.0000
  C   C12       1.0  0.50801  0.98686  0.10755  1.0000
  H   H7        1.0  0.52207  0.01044  0.09471  1.0000
  H   H8        1.0  0.48487  0.98103  0.10373  1.0000
  H   H9        1.0  0.51212  0.97485  0.05497  1.0000
  N   N4        1.0  0.26656  0.55630  0.27886  1.0000
  C   C13       1.0  0.29217  0.55626  0.26540  1.0000
  H   H10       1.0  0.30036  0.55975  0.20167  1.0000
  N   N5        1.0  0.45430  0.71246  0.27937  1.0000
  C   C14       1.0  0.45437  0.73813  0.26582  1.0000
  H   H11       1.0  0.45092  0.74283  0.20206  1.0000
  N   N6        1.0  0.29794  0.74377  0.27907  1.0000
  C   C15       1.0  0.27227  0.71817  0.26553  1.0000
  H   H12       1.0  0.26754  0.71004  0.20175  1.0000
  N   N7        1.0  0.74439  0.44901  0.26968  1.0000
  C   C16       1.0  0.71857  0.44869  0.25705  1.0000
  H   H13       1.0  0.70887  0.44235  0.19556  1.0000
  N   N8        1.0  0.56132  0.29747  0.26963  1.0000
  C   C17       1.0  0.56166  0.27197  0.25707  1.0000
  H   H14       1.0  0.56791  0.26856  0.19551  1.0000
  N   N9        1.0  0.71278  0.26590  0.26974  1.0000
  C   C18       1.0  0.73828  0.29173  0.25717  1.0000
  H   H15       1.0  0.74162  0.30148  0.19576  1.0000
  N   N10       1.0  0.16369  0.58333  0.35381  1.0000
  C   C19       1.0  0.18024  0.61441  0.34201  1.0000
  C   C20       1.0  0.13245  0.56762  0.34888  1.0000
  C   C21       1.0  0.18056  0.56898  0.36231  1.0000
  C   C22       1.0  0.19788  0.57386  0.43999  1.0000
  C   C23       1.0  0.22084  0.56726  0.44070  1.0000
  C   C24       1.0  0.22695  0.55491  0.36455  1.0000
  C   C25       1.0  0.20832  0.54861  0.28864  1.0000
  C   C26       1.0  0.18561  0.55561  0.28730  1.0000
  C   C27       1.0  0.18642  0.63310  0.41686  1.0000
  C   C28       1.0  0.20943  0.66265  0.41374  1.0000
  C   C29       1.0  0.22745  0.67469  0.33624  1.0000
  C   C30       1.0  0.21969  0.65599  0.25980  1.0000
  C   C31       1.0  0.19660  0.62647  0.26256  1.0000
  C   C32       1.0  0.11540  0.56242  0.42723  1.0000
  C   C33       1.0  0.08432  0.54688  0.42298  1.0000
  C   C34       1.0  0.06910  0.53601  0.34037  1.0000
  C   C35       1.0  0.08663  0.54105  0.26244  1.0000
  C   C36       1.0  0.11770  0.55676  0.26637  1.0000
  H   H16       1.0  0.21397  0.67474  0.47155  1.0000
  H   H17       1.0  0.17578  0.62462  0.47646  1.0000
  H   H18       1.0  0.19339  0.61310  0.20854  1.0000
  H   H19       1.0  0.23198  0.66272  0.20243  1.0000
  H   H20       1.0  0.19572  0.58491  0.49350  1.0000
  H   H21       1.0  0.23460  0.57411  0.49503  1.0000
  H   H22       1.0  0.12559  0.57001  0.48794  1.0000
  H   H23       1.0  0.07287  0.54392  0.48144  1.0000
  H   H24       1.0  0.07703  0.53265  0.20173  1.0000
  H   H25       1.0  0.12957  0.56004  0.20868  1.0000
  H   H26       1.0  0.17429  0.55300  0.22885  1.0000
  H   H27       1.0  0.21209  0.54022  0.23126  1.0000
  N   N11       1.0  0.42697  0.58247  0.35442  1.0000
  C   C37       1.0  0.39590  0.56797  0.34229  1.0000
  C   C38       1.0  0.44267  0.56693  0.34931  1.0000
  C   C39       1.0  0.44135  0.61369  0.36290  1.0000
  C   C40       1.0  0.43632  0.62610  0.44038  1.0000
  C   C41       1.0  0.44305  0.65570  0.44123  1.0000
  C   C42       1.0  0.45555  0.67420  0.36523  1.0000
  C   C43       1.0  0.46188  0.66186  0.28940  1.0000
  C   C44       1.0  0.45487  0.63214  0.28807  1.0000
  C   C45       1.0  0.37714  0.55534  0.41693  1.0000
  C   C46       1.0  0.34760  0.54883  0.41370  1.0000
  C   C47       1.0  0.33563  0.55490  0.33624  1.0000
  C   C48       1.0  0.35439  0.56595  0.25996  1.0000
  C   C49       1.0  0.38391  0.57238  0.26286  1.0000
  C   C50       1.0  0.44813  0.55531  0.42771  1.0000
  C   C51       1.0  0.46365  0.53976  0.42333  1.0000
  C   C52       1.0  0.47426  0.53518  0.34054  1.0000
  C   C53       1.0  0.46897  0.54746  0.26256  1.0000
  C   C54       1.0  0.45326  0.56282  0.26661  1.0000
  H   H28       1.0  0.33544  0.54112  0.47132  1.0000
  H   H29       1.0  0.38557  0.55306  0.47650  1.0000
  H   H30       1.0  0.39733  0.58262  0.20900  1.0000
  H   H31       1.0  0.34771  0.57159  0.20263  1.0000
  H   H32       1.0  0.42528  0.61290  0.49391  1.0000
  H   H33       1.0  0.43616  0.66261  0.49549  1.0000
  H   H34       1.0  0.44073  0.55807  0.48855  1.0000
  H   H35       1.0  0.46680  0.53143  0.48185  1.0000
  H   H36       1.0  0.47719  0.54611  0.20167  1.0000
  H   H37       1.0  0.44980  0.57126  0.20889  1.0000
  H   H38       1.0  0.45751  0.62345  0.22963  1.0000
  H   H39       1.0  0.47036  0.67404  0.23210  1.0000
  N   N12       1.0  0.42789  0.84655  0.35419  1.0000
  C   C55       1.0  0.44245  0.83002  0.34236  1.0000
  C   C56       1.0  0.44340  0.87779  0.34920  1.0000
  C   C57       1.0  0.39666  0.82966  0.36256  1.0000
  C   C58       1.0  0.38427  0.81230  0.44017  1.0000
  C   C59       1.0  0.35469  0.78935  0.44090  1.0000
  C   C60       1.0  0.33620  0.78329  0.36485  1.0000
  C   C61       1.0  0.34853  0.80194  0.28895  1.0000
  C   C62       1.0  0.37825  0.82467  0.28760  1.0000
  C   C63       1.0  0.45499  0.82390  0.41721  1.0000
  C   C64       1.0  0.46154  0.80089  0.41409  1.0000
  C   C65       1.0  0.45558  0.78289  0.33657  1.0000
  C   C66       1.0  0.44462  0.79063  0.26012  1.0000
  C   C67       1.0  0.43815  0.81368  0.26287  1.0000
  C   C68       1.0  0.45532  0.89487  0.42749  1.0000
  C   C69       1.0  0.47084  0.92594  0.42320  1.0000
  C   C70       1.0  0.47513  0.94114  0.34059  1.0000
  C   C71       1.0  0.46258  0.92360  0.26273  1.0000
  C   C72       1.0  0.44722  0.89253  0.26670  1.0000
  H   H40       1.0  0.46918  0.79641  0.47182  1.0000
  H   H41       1.0  0.45717  0.83456  0.47679  1.0000
  H   H42       1.0  0.42798  0.81689  0.20888  1.0000
  H   H43       1.0  0.43908  0.77834  0.20274  1.0000
  H   H44       1.0  0.39745  0.81454  0.49381  1.0000
  H   H45       1.0  0.34776  0.77565  0.49537  1.0000
  H   H46       1.0  0.45277  0.88469  0.48819  1.0000
  H   H47       1.0  0.47939  0.93741  0.48161  1.0000
  H   H48       1.0  0.46372  0.93319  0.20203  1.0000
  H   H49       1.0  0.43860  0.88065  0.20904  1.0000
  H   H50       1.0  0.38694  0.83596  0.22912  1.0000
  H   H51       1.0  0.33637  0.79819  0.23158  1.0000
  N   N13       1.0  0.84859  0.42480  0.34523  1.0000
  C   C73       1.0  0.83198  0.39367  0.33493  1.0000
  C   C74       1.0  0.87984  0.44042  0.34589  1.0000
  C   C75       1.0  0.83187  0.43929  0.35298  1.0000
  C   C76       1.0  0.81507  0.43543  0.43119  1.0000
  C   C77       1.0  0.79224  0.44223  0.43115  1.0000
  C   C78       1.0  0.78563  0.45345  0.35332  1.0000
  C   C79       1.0  0.80358  0.45851  0.27644  1.0000
  C   C80       1.0  0.82633  0.45155  0.27614  1.0000
  C   C81       1.0  0.82431  0.37543  0.41143  1.0000
  C   C82       1.0  0.80111  0.34597  0.40782  1.0000
  C   C83       1.0  0.78449  0.33356  0.32803  1.0000
  C   C84       1.0  0.79397  0.35176  0.25025  1.0000
  C   C85       1.0  0.81708  0.38125  0.25366  1.0000
  C   C86       1.0  0.89549  0.44965  0.42762  1.0000
  C   C87       1.0  0.92659  0.46494  0.42850  1.0000
  C   C88       1.0  0.94319  0.47189  0.34773  1.0000
  C   C89       1.0  0.92708  0.46280  0.26599  1.0000
  C   C90       1.0  0.89598  0.44712  0.26503  1.0000
  H   H52       1.0  0.79535  0.33433  0.46668  1.0000
  H   H53       1.0  0.83393  0.38424  0.47202  1.0000
  H   H54       1.0  0.82153  0.39432  0.19808  1.0000
  H   H55       1.0  0.78321  0.34455  0.19042  1.0000
  H   H56       1.0  0.81772  0.42529  0.48627  1.0000
  H   H57       1.0  0.77899  0.43648  0.48661  1.0000
  H   H58       1.0  0.88423  0.44514  0.48707  1.0000
  H   H59       1.0  0.93696  0.47160  0.48929  1.0000
  H   H60       1.0  0.93787  0.46705  0.20572  1.0000
  H   H61       1.0  0.88509  0.44071  0.20492  1.0000
  H   H62       1.0  0.83725  0.45326  0.21745  1.0000
  H   H63       1.0  0.79929  0.46595  0.21793  1.0000
  N   N14       1.0  0.58548  0.42588  0.34489  1.0000
  C   C91       1.0  0.61660  0.44041  0.33463  1.0000
  C   C92       1.0  0.56986  0.44151  0.34565  1.0000
  C   C93       1.0  0.57100  0.39467  0.35279  1.0000
  C   C94       1.0  0.57488  0.38175  0.43101  1.0000
  C   C95       1.0  0.56810  0.35213  0.43104  1.0000
  C   C96       1.0  0.55690  0.33428  0.35321  1.0000
  C   C97       1.0  0.55182  0.34715  0.27631  1.0000
  C   C98       1.0  0.55875  0.37685  0.27599  1.0000
  C   C99       1.0  0.63484  0.45104  0.41112  1.0000
  C   C100      1.0  0.66429  0.45727  0.40756  1.0000
  C   C101      1.0  0.67672  0.45306  0.32782  1.0000
  C   C102      1.0  0.65852  0.44430  0.25004  1.0000
  C   C103      1.0  0.62903  0.43791  0.25340  1.0000
  C   C104      1.0  0.56078  0.44807  0.42744  1.0000
  C   C105      1.0  0.54547  0.46386  0.42836  1.0000
  C   C106      1.0  0.53839  0.47339  0.34758  1.0000
  C   C107      1.0  0.54731  0.46622  0.26580  1.0000
  C   C108      1.0  0.56301  0.45081  0.26479  1.0000
  H   H64       1.0  0.67593  0.46315  0.46645  1.0000
  H   H65       1.0  0.62603  0.45180  0.47175  1.0000
  H   H66       1.0  0.61597  0.42926  0.19784  1.0000
  H   H67       1.0  0.66573  0.44072  0.19025  1.0000
  H   H68       1.0  0.58501  0.39455  0.48607  1.0000
  H   H69       1.0  0.57386  0.34464  0.48651  1.0000
  H   H70       1.0  0.56540  0.44142  0.48689  1.0000
  H   H71       1.0  0.53896  0.46771  0.48921  1.0000
  H   H72       1.0  0.54297  0.47269  0.20553  1.0000
  H   H73       1.0  0.56930  0.44623  0.20464  1.0000
  H   H74       1.0  0.55701  0.38604  0.21728  1.0000
  H   H75       1.0  0.54436  0.33540  0.21784  1.0000
  N   N15       1.0  0.58441  0.16166  0.34512  1.0000
  C   C109      1.0  0.56988  0.17826  0.33479  1.0000
  C   C110      1.0  0.56877  0.13040  0.34584  1.0000
  C   C111      1.0  0.61562  0.17838  0.35291  1.0000
  C   C112      1.0  0.62855  0.19517  0.43115  1.0000
  C   C113      1.0  0.65817  0.21801  0.43110  1.0000
  C   C114      1.0  0.67601  0.22463  0.35328  1.0000
  C   C115      1.0  0.66311  0.20670  0.27636  1.0000
  C   C116      1.0  0.63342  0.18390  0.27610  1.0000
  C   C117      1.0  0.55924  0.18587  0.41124  1.0000
  C   C118      1.0  0.55302  0.20910  0.40764  1.0000
  C   C119      1.0  0.55726  0.22575  0.32789  1.0000
  C   C120      1.0  0.56603  0.21630  0.25014  1.0000
  C   C121      1.0  0.57240  0.19319  0.25354  1.0000
  C   C122      1.0  0.56234  0.11477  0.42760  1.0000
  C   C123      1.0  0.54655  0.08367  0.42853  1.0000
  C   C124      1.0  0.53690  0.06706  0.34777  1.0000
  C   C125      1.0  0.54394  0.08316  0.26601  1.0000
  C   C126      1.0  0.55935  0.11426  0.26500  1.0000
  H   H76       1.0  0.54714  0.21487  0.46650  1.0000
  H   H77       1.0  0.55847  0.17630  0.47187  1.0000
  H   H78       1.0  0.58106  0.18877  0.19800  1.0000
  H   H79       1.0  0.56964  0.22711  0.19037  1.0000
  H   H80       1.0  0.61573  0.19253  0.48614  1.0000
  H   H81       1.0  0.66567  0.23126  0.48655  1.0000
  H   H82       1.0  0.56907  0.12604  0.48704  1.0000
  H   H83       1.0  0.54280  0.07332  0.48935  1.0000
  H   H84       1.0  0.53740  0.07235  0.20575  1.0000
  H   H85       1.0  0.56385  0.12514  0.20487  1.0000
  H   H86       1.0  0.62420  0.17300  0.21740  1.0000
  H   H87       1.0  0.67487  0.21097  0.21791  1.0000
  N   N16       1.0  0.02248  0.50311  0.41044  1.0000
  C   C127      1.0  0.99264  0.48725  0.41807  1.0000
  H   H88       1.0  0.98371  0.47490  0.47460  1.0000
  N   N17       1.0  0.50733  0.52160  0.41021  1.0000
  C   C128      1.0  0.52321  0.50764  0.41776  1.0000
  H   H89       1.0  0.53567  0.51116  0.47409  1.0000
  N   N18       1.0  0.48887  0.98778  0.41065  1.0000
  C   C129      1.0  0.50284  0.01761  0.41825  1.0000
  H   H90       1.0  0.49945  0.02655  0.47480  1.0000
  C   C130      1.0  0.25278  0.55206  0.35969  1.0000
  C   C131      1.0  0.30692  0.55237  0.33934  1.0000
  N   N19       1.0  0.29270  0.54759  0.41968  1.0000
  C   C132      1.0  0.26656  0.54662  0.43345  1.0000
  O   O4        1.0  0.25566  0.54135  0.51905  1.0000
  C   C133      1.0  0.23707  0.51051  0.53823  1.0000
  H   H91       1.0  0.22935  0.50838  0.60734  1.0000
  H   H92       1.0  0.24919  0.49860  0.53216  1.0000
  H   H93       1.0  0.21780  0.50044  0.49413  1.0000
  C   C134      1.0  0.45844  0.70290  0.36030  1.0000
  C   C135      1.0  0.45815  0.75673  0.33977  1.0000
  N   N20       1.0  0.46282  0.74726  0.42021  1.0000
  C   C136      1.0  0.46379  0.72209  0.43406  1.0000
  O   O5        1.0  0.46890  0.71640  0.51978  1.0000
  C   C137      1.0  0.49971  0.72864  0.53946  1.0000
  H   H94       1.0  0.50171  0.72300  0.60863  1.0000
  H   H95       1.0  0.51164  0.75267  0.53350  1.0000
  H   H96       1.0  0.50984  0.71944  0.49557  1.0000
  C   C138      1.0  0.30751  0.75748  0.35997  1.0000
  C   C139      1.0  0.25366  0.70337  0.33948  1.0000
  N   N21       1.0  0.26312  0.71753  0.41989  1.0000
  C   C140      1.0  0.28830  0.74365  0.43373  1.0000
  O   O6        1.0  0.29397  0.75450  0.51941  1.0000
  C   C141      1.0  0.28174  0.77308  0.53889  1.0000
  H   H97       1.0  0.28736  0.78075  0.60805  1.0000
  H   H98       1.0  0.25771  0.76099  0.53288  1.0000
  H   H99       1.0  0.29096  0.79239  0.49493  1.0000
  C   C142      1.0  0.75979  0.45620  0.34820  1.0000
  C   C143      1.0  0.70542  0.45547  0.32955  1.0000
  N   N22       1.0  0.72120  0.46294  0.40759  1.0000
  C   C144      1.0  0.74752  0.46419  0.42032  1.0000
  O   O7        1.0  0.76007  0.47202  0.50364  1.0000
  C   C145      1.0  0.77902  0.50330  0.51376  1.0000
  H   H100      1.0  0.78807  0.50751  0.58164  1.0000
  H   H101      1.0  0.76684  0.51506  0.50517  1.0000
  H   H102      1.0  0.79741  0.51189  0.46630  1.0000
  C   C146      1.0  0.55416  0.30570  0.34816  1.0000
  C   C147      1.0  0.55490  0.25206  0.32962  1.0000
  N   N23       1.0  0.54742  0.26038  0.40763  1.0000
  C   C148      1.0  0.54619  0.28546  0.42033  1.0000
  O   O8        1.0  0.53833  0.29018  0.50360  1.0000
  C   C149      1.0  0.50705  0.27785  0.51364  1.0000
  H   H103      1.0  0.50282  0.28269  0.58149  1.0000
  H   H104      1.0  0.49529  0.25390  0.50506  1.0000
  H   H105      1.0  0.49847  0.28765  0.46613  1.0000
  C   C150      1.0  0.70459  0.25046  0.34818  1.0000
  C   C151      1.0  0.75822  0.30486  0.32967  1.0000
  N   N24       1.0  0.74992  0.28904  0.40765  1.0000
  C   C152      1.0  0.72486  0.26271  0.42032  1.0000
  O   O9        1.0  0.72014  0.25013  0.50358  1.0000
  C   C153      1.0  0.73247  0.23118  0.51357  1.0000
  H   H106      1.0  0.72764  0.22210  0.58141  1.0000
  H   H107      1.0  0.75642  0.24336  0.50498  1.0000
  H   H108      1.0  0.72267  0.21280  0.46604  1.0000
