data_image0
_chemical_formula_structural       CNCHNHCNCHNHCNCHNHCNCHNHCNCHNHCNCHNHC4HC6HO2C4HC6HO2C4HC6HO2C4HC6HO2C4HC6HO2C4HC6HO2C4HC6HO2C4HC6HO2C4HC6HO2C4HC6HO2C4HC6HO2C4HC6HO2CNCNCNCNCNCNCNCNCNCNCNCNCNCNCNCNCNCNCNCNCNCNCNCNCNCNCNCNCNCNCNCNCNCNCNCNC4HC6HO2C4HC6HO2C4HC6HO2C4HC6HO2C4HC6HO2C4HC6HO2CNCHNHCNCHNHCNCHNHCNCHNHCNCHNHCNCHNHCNCHNHCNCHNHCNCHNHCNCHNHCNCHNHCNCHNH
_chemical_formula_sum              "C252 N72 H72 O36"
_cell_length_a       55.9778
_cell_length_b       55.9778
_cell_length_c       14.8885
_cell_angle_alpha    90
_cell_angle_beta     90
_cell_angle_gamma    120

_space_group_name_H-M_alt    "P 1"
_space_group_IT_number       1

loop_
  _space_group_symop_operation_xyz
  'x, y, z'

loop_
  _atom_site_type_symbol
  _atom_site_label
  _atom_site_symmetry_multiplicity
  _atom_site_fract_x
  _atom_site_fract_y
  _atom_site_fract_z
  _atom_site_occupancy
  C   C1        1.0  0.25037  0.44998  0.32530  1.0000
  N   N1        1.0  0.23527  0.42199  0.32491  1.0000
  C   C2        1.0  0.19308  0.33577  0.32243  1.0000
  H   H1        1.0  0.27118  0.45896  0.31599  1.0000
  N   N2        1.0  0.20607  0.36376  0.32371  1.0000
  H   H2        1.0  0.20480  0.32672  0.31200  1.0000
  C   C3        1.0  0.55380  0.75286  0.32271  1.0000
  N   N3        1.0  0.58180  0.76784  0.32252  1.0000
  C   C4        1.0  0.66805  0.80977  0.32060  1.0000
  H   H3        1.0  0.54473  0.73194  0.31616  1.0000
  N   N4        1.0  0.64006  0.79686  0.32162  1.0000
  H   H4        1.0  0.67706  0.79789  0.31315  1.0000
  C   C5        1.0  0.25099  0.79391  0.32724  1.0000
  N   N5        1.0  0.23595  0.80685  0.32519  1.0000
  C   C6        1.0  0.19386  0.85102  0.31857  1.0000
  H   H5        1.0  0.27190  0.80575  0.32028  1.0000
  N   N6        1.0  0.20682  0.83599  0.32102  1.0000
  H   H6        1.0  0.20568  0.87185  0.30944  1.0000
  C   C7        1.0  0.79966  0.54742  0.32785  1.0000
  N   N7        1.0  0.81263  0.57541  0.32650  1.0000
  C   C8        1.0  0.85687  0.66170  0.32119  1.0000
  H   H7        1.0  0.81141  0.53833  0.31892  1.0000
  N   N8        1.0  0.84183  0.63371  0.32335  1.0000
  H   H8        1.0  0.87762  0.67070  0.31037  1.0000
  C   C9        1.0  0.45574  0.20448  0.31892  1.0000
  N   N9        1.0  0.42776  0.19158  0.31812  1.0000
  C   C10       1.0  0.34157  0.14752  0.31370  1.0000
  H   H9        1.0  0.46476  0.19278  0.30756  1.0000
  N   N10       1.0  0.36956  0.16252  0.31572  1.0000
  H   H10       1.0  0.33256  0.12686  0.30089  1.0000
  C   C11       1.0  0.75894  0.20390  0.31538  1.0000
  N   N11       1.0  0.77393  0.19089  0.31664  1.0000
  C   C12       1.0  0.81610  0.14681  0.31478  1.0000
  H   H11       1.0  0.73867  0.19271  0.29701  1.0000
  N   N12       1.0  0.80306  0.16177  0.31649  1.0000
  H   H12       1.0  0.80494  0.12658  0.29594  1.0000
  C   C13       1.0  0.16465  0.23242  0.32454  1.0000
  C   C14       1.0  0.19330  0.20239  0.32235  1.0000
  C   C15       1.0  0.16404  0.18787  0.31680  1.0000
  C   C16       1.0  0.15023  0.20323  0.31806  1.0000
  H   H13       1.0  0.12916  0.19283  0.31417  1.0000
  C   C17       1.0  0.20787  0.18773  0.32183  1.0000
  C   C18       1.0  0.23776  0.15896  0.32157  1.0000
  C   C19       1.0  0.20858  0.14458  0.31571  1.0000
  C   C20       1.0  0.19328  0.15847  0.31569  1.0000
  C   C21       1.0  0.16416  0.14419  0.30987  1.0000
  C   C22       1.0  0.14967  0.15875  0.31044  1.0000
  H   H14       1.0  0.19817  0.12352  0.31129  1.0000
  O   O1        1.0  0.14957  0.11631  0.30380  1.0000
  O   O2        1.0  0.12177  0.14424  0.30490  1.0000
  C   C23       1.0  0.77177  0.92523  0.32273  1.0000
  C   C24       1.0  0.80150  0.98386  0.32186  1.0000
  C   C25       1.0  0.81618  0.96927  0.31660  1.0000
  C   C26       1.0  0.80095  0.94008  0.31718  1.0000
  H   H15       1.0  0.81142  0.92947  0.31345  1.0000
  C   C27       1.0  0.81598  0.01308  0.32199  1.0000
  C   C28       1.0  0.84443  0.07172  0.32386  1.0000
  C   C29       1.0  0.85896  0.05706  0.31793  1.0000
  C   C30       1.0  0.84525  0.02789  0.31689  1.0000
  C   C31       1.0  0.85971  0.01322  0.31133  1.0000
  C   C32       1.0  0.84531  0.98418  0.31118  1.0000
  H   H16       1.0  0.88004  0.06779  0.31450  1.0000
  O   O3        1.0  0.88762  0.02668  0.30628  1.0000
  O   O4        1.0  0.85998  0.97095  0.30597  1.0000
  C   C33       1.0  0.07834  0.83922  0.31984  1.0000
  C   C34       1.0  0.01967  0.81026  0.31945  1.0000
  C   C35       1.0  0.03426  0.83952  0.31319  1.0000
  C   C36       1.0  0.06345  0.85350  0.31356  1.0000
  H   H17       1.0  0.07405  0.87456  0.30908  1.0000
  C   C37       1.0  0.99045  0.79550  0.31969  1.0000
  C   C38       1.0  0.93177  0.76528  0.32140  1.0000
  C   C39       1.0  0.94645  0.79447  0.31472  1.0000
  C   C40       1.0  0.97562  0.80993  0.31372  1.0000
  C   C41       1.0  0.99028  0.83904  0.30724  1.0000
  C   C42       1.0  0.01933  0.85370  0.30697  1.0000
  H   H18       1.0  0.93572  0.80480  0.31055  1.0000
  O   O5        1.0  0.97681  0.85346  0.30132  1.0000
  O   O6        1.0  0.03254  0.88158  0.30078  1.0000
  C   C43       1.0  0.84513  0.76543  0.32423  1.0000
  C   C44       1.0  0.81631  0.79526  0.32268  1.0000
  C   C45       1.0  0.84558  0.80987  0.31725  1.0000
  C   C46       1.0  0.85949  0.79460  0.31817  1.0000
  H   H19       1.0  0.88057  0.80504  0.31424  1.0000
  C   C47       1.0  0.80162  0.80979  0.32221  1.0000
  C   C48       1.0  0.77154  0.83838  0.32220  1.0000
  C   C49       1.0  0.80074  0.85283  0.31650  1.0000
  C   C50       1.0  0.81613  0.83905  0.31635  1.0000
  C   C51       1.0  0.84526  0.85345  0.31075  1.0000
  C   C52       1.0  0.85985  0.83899  0.31118  1.0000
  H   H20       1.0  0.81113  0.87389  0.31236  1.0000
  O   O7        1.0  0.85976  0.88134  0.30496  1.0000
  O   O8        1.0  0.88775  0.85360  0.30577  1.0000
  C   C53       1.0  0.23833  0.07246  0.31632  1.0000
  C   C54       1.0  0.20850  0.01378  0.31458  1.0000
  C   C55       1.0  0.19389  0.02843  0.30863  1.0000
  C   C56       1.0  0.20915  0.05761  0.30963  1.0000
  H   H21       1.0  0.19868  0.06821  0.30554  1.0000
  C   C57       1.0  0.19393  0.98455  0.31456  1.0000
  C   C58       1.0  0.16527  0.92587  0.31622  1.0000
  C   C59       1.0  0.15086  0.94064  0.30953  1.0000
  C   C60       1.0  0.16468  0.96981  0.30859  1.0000
  C   C61       1.0  0.15030  0.98455  0.30224  1.0000
  C   C62       1.0  0.16478  0.01360  0.30226  1.0000
  H   H22       1.0  0.12979  0.92997  0.30541  1.0000
  O   O9        1.0  0.12241  0.97117  0.29632  1.0000
  O   O10       1.0  0.15018  0.02689  0.29637  1.0000
  C   C63       1.0  0.93116  0.15834  0.33053  1.0000
  C   C64       1.0  0.98982  0.18713  0.33008  1.0000
  C   C65       1.0  0.97516  0.15787  0.32401  1.0000
  C   C66       1.0  0.94598  0.14398  0.32442  1.0000
  H   H23       1.0  0.93534  0.12292  0.31993  1.0000
  C   C67       1.0  0.01904  0.20179  0.32989  1.0000
  C   C68       1.0  0.07770  0.23188  0.32973  1.0000
  C   C69       1.0  0.06298  0.20270  0.32378  1.0000
  C   C70       1.0  0.03380  0.18730  0.32366  1.0000
  C   C71       1.0  0.01906  0.15818  0.31754  1.0000
  C   C72       1.0  0.99001  0.14360  0.31770  1.0000
  H   H24       1.0  0.07370  0.19235  0.31922  1.0000
  O   O11       1.0  0.03245  0.14368  0.31135  1.0000
  O   O12       1.0  0.97671  0.11572  0.31166  1.0000
  C   C73       1.0  0.24289  0.68054  0.37492  1.0000
  C   C74       1.0  0.23563  0.62702  0.37677  1.0000
  C   C75       1.0  0.22723  0.63590  0.29965  1.0000
  C   C76       1.0  0.23086  0.66287  0.30028  1.0000
  H   H25       1.0  0.22711  0.67062  0.24304  1.0000
  C   C77       1.0  0.23569  0.60184  0.37588  1.0000
  C   C78       1.0  0.24306  0.55568  0.37057  1.0000
  C   C79       1.0  0.23097  0.56161  0.29679  1.0000
  C   C80       1.0  0.22733  0.58494  0.29787  1.0000
  C   C81       1.0  0.21770  0.59319  0.22268  1.0000
  C   C82       1.0  0.21766  0.61840  0.22355  1.0000
  H   H26       1.0  0.22729  0.55044  0.23885  1.0000
  O   O13       1.0  0.20973  0.57778  0.14677  1.0000
  O   O14       1.0  0.20967  0.62618  0.14841  1.0000
  C   C83       1.0  0.32535  0.55334  0.34837  1.0000
  C   C84       1.0  0.37862  0.59996  0.34344  1.0000
  C   C85       1.0  0.36628  0.58607  0.26183  1.0000
  C   C86       1.0  0.33948  0.56259  0.26575  1.0000
  H   H27       1.0  0.32914  0.55370  0.20739  1.0000
  C   C87       1.0  0.40376  0.62528  0.34225  1.0000
  C   C88       1.0  0.45004  0.67875  0.34232  1.0000
  C   C89       1.0  0.44031  0.66408  0.26082  1.0000
  C   C90       1.0  0.41700  0.63714  0.25936  1.0000
  C   C91       1.0  0.40527  0.62265  0.17857  1.0000
  C   C92       1.0  0.38016  0.59735  0.17979  1.0000
  H   H28       1.0  0.44880  0.67402  0.20156  1.0000
  O   O15       1.0  0.41714  0.63342  0.09819  1.0000
  O   O16       1.0  0.36893  0.58488  0.10053  1.0000
  C   C93       1.0  0.44885  0.76190  0.35236  1.0000
  C   C94       1.0  0.40335  0.77032  0.35683  1.0000
  C   C95       1.0  0.41791  0.77457  0.27473  1.0000
  C   C96       1.0  0.44087  0.77036  0.27395  1.0000
  H   H29       1.0  0.45043  0.77123  0.21439  1.0000
  C   C97       1.0  0.37853  0.77109  0.35907  1.0000
  C   C98       1.0  0.32551  0.76499  0.36331  1.0000
  C   C99       1.0  0.34097  0.77291  0.28279  1.0000
  C   C100      1.0  0.36766  0.77592  0.27922  1.0000
  C   C101      1.0  0.38286  0.78136  0.19843  1.0000
  C   C102      1.0  0.40776  0.78075  0.19624  1.0000
  H   H30       1.0  0.33161  0.77368  0.22459  1.0000
  O   O17       1.0  0.37312  0.78586  0.12074  1.0000
  O   O18       1.0  0.42091  0.78469  0.11655  1.0000
  C   C103      1.0  0.76745  0.31730  0.35103  1.0000
  C   C104      1.0  0.77579  0.37119  0.35531  1.0000
  C   C105      1.0  0.77963  0.36071  0.27294  1.0000
  C   C106      1.0  0.77546  0.33356  0.27226  1.0000
  H   H31       1.0  0.77595  0.32470  0.21261  1.0000
  C   C107      1.0  0.77658  0.39679  0.35761  1.0000
  C   C108      1.0  0.77068  0.44388  0.36233  1.0000
  C   C109      1.0  0.77809  0.43603  0.28140  1.0000
  C   C110      1.0  0.78105  0.41233  0.27757  1.0000
  C   C111      1.0  0.78606  0.40238  0.19643  1.0000
  C   C112      1.0  0.78541  0.37685  0.19417  1.0000
  H   H32       1.0  0.77867  0.44608  0.22322  1.0000
  O   O19       1.0  0.79017  0.41644  0.11855  1.0000
  O   O20       1.0  0.78895  0.36746  0.11423  1.0000
  C   C113      1.0  0.68629  0.44211  0.37484  1.0000
  C   C114      1.0  0.63275  0.39596  0.37626  1.0000
  C   C115      1.0  0.64168  0.41333  0.29934  1.0000
  C   C116      1.0  0.66868  0.43664  0.30017  1.0000
  H   H33       1.0  0.67647  0.44820  0.24307  1.0000
  C   C117      1.0  0.60755  0.37075  0.37511  1.0000
  C   C118      1.0  0.56135  0.31725  0.36916  1.0000
  C   C119      1.0  0.56732  0.33538  0.29565  1.0000
  C   C120      1.0  0.59068  0.36233  0.29703  1.0000
  C   C121      1.0  0.59898  0.38029  0.22208  1.0000
  C   C122      1.0  0.62421  0.40552  0.22320  1.0000
  H   H34       1.0  0.55617  0.32796  0.23764  1.0000
  O   O21       1.0  0.58359  0.37297  0.14611  1.0000
  O   O22       1.0  0.63204  0.42137  0.14825  1.0000
  C   C123      1.0  0.55896  0.23260  0.34624  1.0000
  C   C124      1.0  0.60547  0.22578  0.34148  1.0000
  C   C125      1.0  0.59153  0.22412  0.25989  1.0000
  C   C126      1.0  0.56809  0.22751  0.26374  1.0000
  H   H35       1.0  0.55916  0.22888  0.20534  1.0000
  C   C127      1.0  0.63076  0.22591  0.34031  1.0000
  C   C128      1.0  0.68421  0.23304  0.34036  1.0000
  C   C129      1.0  0.66951  0.22804  0.25889  1.0000
  C   C130      1.0  0.64258  0.22441  0.25745  1.0000
  C   C131      1.0  0.62801  0.22150  0.17672  1.0000
  C   C132      1.0  0.60272  0.22134  0.17792  1.0000
  H   H36       1.0  0.67943  0.22943  0.19964  1.0000
  O   O23       1.0  0.63870  0.22023  0.09638  1.0000
  O   O24       1.0  0.59018  0.21995  0.09869  1.0000
  C   C133      1.0  0.15032  0.24762  0.32671  1.0000
  N   N13       1.0  0.16358  0.27572  0.32904  1.0000
  C   C134      1.0  0.14989  0.29016  0.33178  1.0000
  N   N14       1.0  0.12177  0.27525  0.33207  1.0000
  C   C135      1.0  0.10724  0.24721  0.32968  1.0000
  N   N15       1.0  0.12226  0.23422  0.32708  1.0000
  C   C136      1.0  0.75660  0.89570  0.32359  1.0000
  N   N16       1.0  0.72858  0.88112  0.32579  1.0000
  C   C137      1.0  0.71370  0.85301  0.32659  1.0000
  N   N17       1.0  0.72818  0.83935  0.32517  1.0000
  C   C138      1.0  0.75629  0.85267  0.32308  1.0000
  N   N18       1.0  0.76966  0.88074  0.32233  1.0000
  C   C139      1.0  0.10789  0.85360  0.32039  1.0000
  N   N19       1.0  0.12248  0.84018  0.32362  1.0000
  C   C140      1.0  0.15059  0.85341  0.32417  1.0000
  N   N20       1.0  0.16424  0.88154  0.32144  1.0000
  C   C141      1.0  0.15093  0.89632  0.31827  1.0000
  N   N21       1.0  0.12285  0.88162  0.31784  1.0000
  C   C142      1.0  0.85948  0.75023  0.32514  1.0000
  N   N22       1.0  0.84606  0.72221  0.32839  1.0000
  C   C143      1.0  0.85933  0.70737  0.32910  1.0000
  N   N23       1.0  0.88747  0.72187  0.32648  1.0000
  C   C144      1.0  0.90222  0.74997  0.32334  1.0000
  N   N24       1.0  0.88749  0.76330  0.32275  1.0000
  C   C145      1.0  0.25344  0.10201  0.31856  1.0000
  N   N25       1.0  0.28152  0.11684  0.32145  1.0000
  C   C146      1.0  0.29595  0.14496  0.32456  1.0000
  N   N26       1.0  0.28104  0.15816  0.32463  1.0000
  C   C147      1.0  0.25301  0.14466  0.32163  1.0000
  N   N27       1.0  0.24001  0.11665  0.31873  1.0000
  C   C148      1.0  0.90162  0.14402  0.33050  1.0000
  N   N28       1.0  0.88697  0.15741  0.33366  1.0000
  C   C149      1.0  0.85885  0.14404  0.33309  1.0000
  N   N29       1.0  0.84526  0.11594  0.32932  1.0000
  C   C150      1.0  0.85866  0.10125  0.32638  1.0000
  N   N30       1.0  0.88671  0.11601  0.32704  1.0000
  C   C151      1.0  0.29636  0.53746  0.34952  1.0000
  N   N31       1.0  0.28149  0.50956  0.34099  1.0000
  C   C152      1.0  0.25327  0.49566  0.34240  1.0000
  N   N32       1.0  0.24040  0.51086  0.35158  1.0000
  C   C153      1.0  0.25489  0.53875  0.36032  1.0000
  N   N33       1.0  0.28275  0.55156  0.35938  1.0000
  C   C154      1.0  0.46532  0.74950  0.34604  1.0000
  N   N34       1.0  0.49326  0.76366  0.33974  1.0000
  C   C155      1.0  0.50823  0.75047  0.33448  1.0000
  N   N35       1.0  0.49404  0.72225  0.33495  1.0000
  C   C156      1.0  0.46606  0.70772  0.34122  1.0000
  N   N36       1.0  0.45214  0.72164  0.34704  1.0000
  C   C157      1.0  0.25480  0.70936  0.36606  1.0000
  N   N37       1.0  0.24055  0.72288  0.35397  1.0000
  C   C158      1.0  0.25361  0.75099  0.34562  1.0000
  N   N38       1.0  0.28184  0.76525  0.34825  1.0000
  C   C159      1.0  0.29651  0.75213  0.36029  1.0000
  N   N39       1.0  0.28263  0.72439  0.36916  1.0000
  C   C160      1.0  0.71512  0.45902  0.36617  1.0000
  N   N40       1.0  0.72868  0.48684  0.35510  1.0000
  C   C161      1.0  0.75679  0.50188  0.34704  1.0000
  N   N41       1.0  0.77103  0.48789  0.34892  1.0000
  C   C162      1.0  0.75786  0.46005  0.35993  1.0000
  N   N42       1.0  0.73011  0.44618  0.36858  1.0000
  C   C163      1.0  0.54311  0.24574  0.34721  1.0000
  N   N43       1.0  0.51522  0.23275  0.33806  1.0000
  C   C164      1.0  0.50135  0.24710  0.33946  1.0000
  N   N44       1.0  0.51655  0.27515  0.34921  1.0000
  C   C165      1.0  0.54442  0.28851  0.35852  1.0000
  N   N45       1.0  0.55720  0.27344  0.35760  1.0000
  C   C166      1.0  0.75499  0.28842  0.34543  1.0000
  N   N46       1.0  0.76913  0.27458  0.34198  1.0000
  C   C167      1.0  0.75588  0.24641  0.33737  1.0000
  N   N47       1.0  0.72767  0.23240  0.33589  1.0000
  C   C168      1.0  0.71318  0.24595  0.33938  1.0000
  N   N48       1.0  0.72712  0.27380  0.34459  1.0000
  C   C169      1.0  0.23767  0.46614  0.33861  1.0000
  C   C170      1.0  0.20748  0.40751  0.33701  1.0000
  C   C171      1.0  0.19323  0.42226  0.35074  1.0000
  C   C172      1.0  0.20868  0.45145  0.35108  1.0000
  H   H37       1.0  0.19855  0.46218  0.36169  1.0000
  C   C173      1.0  0.19284  0.37830  0.33638  1.0000
  C   C174      1.0  0.16415  0.31968  0.33399  1.0000
  C   C175      1.0  0.14992  0.33440  0.34753  1.0000
  C   C176      1.0  0.16379  0.36359  0.34924  1.0000
  C   C177      1.0  0.14975  0.37841  0.36321  1.0000
  C   C178      1.0  0.16434  0.40747  0.36404  1.0000
  H   H38       1.0  0.12901  0.32370  0.35682  1.0000
  O   O25       1.0  0.12209  0.36508  0.37621  1.0000
  O   O26       1.0  0.15007  0.42083  0.37792  1.0000
  C   C179      1.0  0.53775  0.76583  0.33190  1.0000
  C   C180      1.0  0.59638  0.79576  0.33103  1.0000
  C   C181      1.0  0.58173  0.81027  0.34062  1.0000
  C   C182      1.0  0.55255  0.79495  0.34070  1.0000
  H   H39       1.0  0.54190  0.80529  0.34814  1.0000
  C   C183      1.0  0.62559  0.81030  0.33059  1.0000
  C   C184      1.0  0.68419  0.83881  0.32857  1.0000
  C   C185      1.0  0.66953  0.85324  0.33825  1.0000
  C   C186      1.0  0.64036  0.83948  0.33960  1.0000
  C   C187      1.0  0.62564  0.85378  0.34948  1.0000
  C   C188      1.0  0.59659  0.83931  0.35003  1.0000
  H   H40       1.0  0.68027  0.87425  0.34472  1.0000
  O   O27       1.0  0.63906  0.88159  0.35862  1.0000
  O   O28       1.0  0.58332  0.85382  0.35979  1.0000
  C   C189      1.0  0.23812  0.76499  0.33931  1.0000
  C   C190      1.0  0.20805  0.79355  0.33435  1.0000
  C   C191      1.0  0.19363  0.76448  0.34661  1.0000
  C   C192      1.0  0.20902  0.75068  0.34863  1.0000
  H   H41       1.0  0.19875  0.72979  0.35834  1.0000
  C   C193      1.0  0.19346  0.80816  0.33230  1.0000
  C   C194      1.0  0.16484  0.83815  0.32742  1.0000
  C   C195      1.0  0.15049  0.80914  0.33947  1.0000
  C   C196      1.0  0.16431  0.79380  0.34232  1.0000
  C   C197      1.0  0.15010  0.76487  0.35480  1.0000
  C   C198      1.0  0.16462  0.75035  0.35698  1.0000
  H   H42       1.0  0.12950  0.79890  0.34673  1.0000
  O   O29       1.0  0.12233  0.75052  0.36507  1.0000
  O   O30       1.0  0.15020  0.72266  0.36942  1.0000
  C   C199      1.0  0.77081  0.53138  0.34167  1.0000
  C   C200      1.0  0.79944  0.59003  0.33812  1.0000
  C   C201      1.0  0.77045  0.57539  0.35240  1.0000
  C   C202      1.0  0.75662  0.54621  0.35363  1.0000
  H   H43       1.0  0.73580  0.53558  0.36480  1.0000
  C   C203      1.0  0.81407  0.61924  0.33659  1.0000
  C   C204      1.0  0.84408  0.67786  0.33230  1.0000
  C   C205      1.0  0.81516  0.66321  0.34647  1.0000
  C   C206      1.0  0.79982  0.63404  0.34911  1.0000
  C   C207      1.0  0.77098  0.61933  0.36371  1.0000
  C   C208      1.0  0.75644  0.59028  0.36541  1.0000
  H   H44       1.0  0.80500  0.67397  0.35552  1.0000
  O   O31       1.0  0.75674  0.63277  0.37651  1.0000
  O   O32       1.0  0.72885  0.57703  0.37990  1.0000
  C   C209      1.0  0.47185  0.23319  0.33523  1.0000
  C   C210      1.0  0.41323  0.20473  0.33266  1.0000
  C   C211      1.0  0.42793  0.23358  0.34958  1.0000
  C   C212      1.0  0.45712  0.24734  0.35030  1.0000
  H   H45       1.0  0.46781  0.26806  0.36326  1.0000
  C   C213      1.0  0.38403  0.19015  0.33142  1.0000
  C   C214      1.0  0.32544  0.16021  0.32756  1.0000
  C   C215      1.0  0.34009  0.18900  0.34430  1.0000
  C   C216      1.0  0.36927  0.20431  0.34684  1.0000
  C   C217      1.0  0.38403  0.23300  0.36411  1.0000
  C   C218      1.0  0.41308  0.24749  0.36556  1.0000
  H   H46       1.0  0.32933  0.19906  0.35545  1.0000
  O   O33       1.0  0.37063  0.24715  0.37975  1.0000
  O   O34       1.0  0.42639  0.27495  0.38264  1.0000
  C   C219      1.0  0.77119  0.23222  0.33751  1.0000
  C   C220      1.0  0.80107  0.20351  0.33946  1.0000
  C   C221      1.0  0.81472  0.23187  0.36351  1.0000
  C   C222      1.0  0.79946  0.24579  0.36169  1.0000
  H   H47       1.0  0.80912  0.26617  0.37947  1.0000
  C   C223      1.0  0.81568  0.18891  0.33939  1.0000
  C   C224      1.0  0.84445  0.15912  0.33630  1.0000
  C   C225      1.0  0.85802  0.18735  0.36081  1.0000
  C   C226      1.0  0.84406  0.20256  0.36322  1.0000
  C   C227      1.0  0.85741  0.23070  0.38822  1.0000
  C   C228      1.0  0.84287  0.24522  0.38841  1.0000
  H   H48       1.0  0.87846  0.19704  0.37791  1.0000
  O   O35       1.0  0.88436  0.24430  0.41236  1.0000
  O   O36       1.0  0.85646  0.27215  0.41279  1.0000
  C   C229      1.0  0.19376  0.24544  0.32939  1.0000
  N   N49       1.0  0.20674  0.23040  0.32830  1.0000
  C   C230      1.0  0.25084  0.18807  0.32730  1.0000
  H   H49       1.0  0.20565  0.26640  0.33435  1.0000
  N   N50       1.0  0.23586  0.20111  0.32732  1.0000
  H   H50       1.0  0.27181  0.19994  0.33178  1.0000
  C   C231      1.0  0.75860  0.94119  0.32747  1.0000
  N   N51       1.0  0.77350  0.96920  0.32700  1.0000
  C   C232      1.0  0.81532  0.05556  0.32820  1.0000
  H   H51       1.0  0.73762  0.93203  0.33170  1.0000
  N   N52       1.0  0.80244  0.02755  0.32731  1.0000
  H   H52       1.0  0.80336  0.06456  0.33278  1.0000
  C   C233      1.0  0.06239  0.81010  0.32561  1.0000
  N   N53       1.0  0.03438  0.79698  0.32532  1.0000
  C   C234      1.0  0.94795  0.75237  0.32667  1.0000
  H   H53       1.0  0.07156  0.79830  0.33041  1.0000
  N   N54       1.0  0.97596  0.76750  0.32581  1.0000
  H   H54       1.0  0.93894  0.73142  0.33180  1.0000
  C   C235      1.0  0.81601  0.75232  0.32926  1.0000
  N   N55       1.0  0.80295  0.76726  0.32841  1.0000
  C   C236      1.0  0.75853  0.80927  0.32749  1.0000
  H   H55       1.0  0.80417  0.73135  0.33384  1.0000
  N   N56       1.0  0.77361  0.79633  0.32744  1.0000
  H   H56       1.0  0.73756  0.79737  0.33192  1.0000
  C   C237      1.0  0.25144  0.05646  0.32149  1.0000
  N   N57       1.0  0.23649  0.02844  0.32063  1.0000
  C   C238      1.0  0.19437  0.94196  0.32144  1.0000
  H   H57       1.0  0.27240  0.06561  0.32662  1.0000
  N   N58       1.0  0.20735  0.96997  0.32063  1.0000
  H   H58       1.0  0.20625  0.93288  0.32657  1.0000
  C   C239      1.0  0.94718  0.18745  0.33631  1.0000
  N   N59       1.0  0.97519  0.20049  0.33593  1.0000
  C   C240      1.0  0.06158  0.24486  0.33557  1.0000
  H   H59       1.0  0.93806  0.19930  0.34095  1.0000
  N   N60       1.0  0.03358  0.22979  0.33552  1.0000
  H   H60       1.0  0.07062  0.26583  0.34013  1.0000
  C   C241      1.0  0.24990  0.66997  0.45023  1.0000
  N   N61       1.0  0.24636  0.64424  0.44825  1.0000
  C   C242      1.0  0.25014  0.57292  0.44675  1.0000
  H   H61       1.0  0.25967  0.68217  0.50459  1.0000
  N   N62       1.0  0.24653  0.59507  0.44642  1.0000
  H   H62       1.0  0.26002  0.57030  0.50042  1.0000
  C   C243      1.0  0.33912  0.56767  0.42708  1.0000
  N   N63       1.0  0.36462  0.59018  0.42183  1.0000
  C   C244      1.0  0.43630  0.66553  0.42237  1.0000
  H   H63       1.0  0.32925  0.56292  0.48782  1.0000
  N   N64       1.0  0.41396  0.63986  0.41946  1.0000
  H   H64       1.0  0.44149  0.67581  0.48239  1.0000
  C   C245      1.0  0.43382  0.75860  0.43190  1.0000
  N   N65       1.0  0.41193  0.76266  0.43122  1.0000
  C   C246      1.0  0.33798  0.76149  0.44077  1.0000
  H   H65       1.0  0.43789  0.75124  0.48933  1.0000
  N   N66       1.0  0.36337  0.76426  0.43576  1.0000
  H   H66       1.0  0.32719  0.75435  0.49948  1.0000
  C   C247      1.0  0.76455  0.32918  0.43087  1.0000
  N   N67       1.0  0.76852  0.35511  0.43004  1.0000
  C   C248      1.0  0.76748  0.42801  0.43983  1.0000
  H   H67       1.0  0.75739  0.31784  0.48856  1.0000
  N   N68       1.0  0.77015  0.40533  0.43466  1.0000
  H   H68       1.0  0.76067  0.43184  0.49891  1.0000
  C   C249      1.0  0.67570  0.42449  0.45002  1.0000
  N   N69       1.0  0.64995  0.40234  0.44779  1.0000
  C   C250      1.0  0.57858  0.32730  0.44541  1.0000
  H   H69       1.0  0.68788  0.42684  0.50435  1.0000
  N   N70       1.0  0.60074  0.35306  0.44543  1.0000
  H   H70       1.0  0.57589  0.31474  0.49897  1.0000
  C   C251      1.0  0.57333  0.23326  0.42496  1.0000
  N   N71       1.0  0.59579  0.23017  0.41978  1.0000
  C   C252      1.0  0.67102  0.23361  0.42040  1.0000
  H   H71       1.0  0.56866  0.23850  0.48561  1.0000
  N   N72       1.0  0.64537  0.23035  0.41749  1.0000
  H   H72       1.0  0.68131  0.23874  0.48039  1.0000
