data_image0
_chemical_formula_structural       C3OHCHNC3HCNC2HC3OHCHNC3HCNC2H3COHNCHC4OHCNCOCOHNCHC4OHCNCOC9OHNCHC2HC3HC2H2C2NC2OHC2NC2OHC9OHNCHC2HC3HC2H2C2NC2OHC2NC2OHN2C3OHC2OHOHCHNCHNCHC3H2CH2C3H2C2NC2OHC2NC2OHC3OHC2OHOHCHNCHNCHC3H2CH2C3H2C2NC2OHC2NC2OHC6O2H2C6O2H2C6O2H2NCHNCHNCHNCHNCHNCHC3H2C3H2C3H2C3H2C3H2C3H2C2NC2OHC2NC2OHC2NC2OHC2NC2OHC2NC2OHC2NC2OHC6O2H2C6O2H2C6O2H2NCHNCHNCHNCHNCHNCHC3H2C3H2C3H2C3H2C3H2C3H2C2NC2OHC2NC2OHC2NC2OHC2NC2OHC2NC2OHC2NC2OH
_chemical_formula_sum              "C264 O48 H120 N48"
_cell_length_a       46.2708
_cell_length_b       46.2708
_cell_length_c       14.8305
_cell_angle_alpha    90
_cell_angle_beta     90
_cell_angle_gamma    120

_space_group_name_H-M_alt    "P 1"
_space_group_IT_number       1

loop_
  _space_group_symop_operation_xyz
  'x, y, z'

loop_
  _atom_site_type_symbol
  _atom_site_label
  _atom_site_symmetry_multiplicity
  _atom_site_fract_x
  _atom_site_fract_y
  _atom_site_fract_z
  _atom_site_occupancy
  C   C1        1.0  0.02688  0.26491  0.31050  1.0000
  C   C2        1.0  0.04714  0.30098  0.31186  1.0000
  C   C3        1.0  0.07981  0.31797  0.34988  1.0000
  O   O1        1.0  0.03655  0.32167  0.28012  1.0000
  H   H1        1.0  0.03461  0.31860  0.21434  1.0000
  C   C4        1.0  0.11034  0.23810  0.28550  1.0000
  H   H2        1.0  0.09914  0.23475  0.22400  1.0000
  N   N1        1.0  0.11109  0.37307  0.28780  1.0000
  C   C5        1.0  0.09486  0.29872  0.36997  1.0000
  C   C6        1.0  0.07968  0.26452  0.35013  1.0000
  C   C7        1.0  0.04602  0.24839  0.32148  1.0000
  H   H3        1.0  0.03522  0.22325  0.31855  1.0000
  C   C8        1.0  0.09960  0.24928  0.36030  1.0000
  N   N2        1.0  0.11923  0.25737  0.43480  1.0000
  C   C9        1.0  0.10032  0.35315  0.36257  1.0000
  C   C10       1.0  0.11251  0.34990  0.52435  1.0000
  H   H4        1.0  0.08853  0.33428  0.53664  1.0000
  C   C11       1.0  0.02688  0.76491  0.31050  1.0000
  C   C12       1.0  0.04715  0.80098  0.31186  1.0000
  C   C13       1.0  0.07981  0.81797  0.34988  1.0000
  O   O2        1.0  0.03655  0.82167  0.28012  1.0000
  H   H5        1.0  0.03461  0.81860  0.21434  1.0000
  C   C14       1.0  0.11034  0.73810  0.28550  1.0000
  H   H6        1.0  0.09913  0.73475  0.22400  1.0000
  N   N3        1.0  0.11108  0.87307  0.28780  1.0000
  C   C15       1.0  0.09486  0.79872  0.36997  1.0000
  C   C16       1.0  0.07968  0.76452  0.35013  1.0000
  C   C17       1.0  0.04602  0.74839  0.32148  1.0000
  H   H7        1.0  0.03522  0.72325  0.31855  1.0000
  C   C18       1.0  0.09960  0.74928  0.36030  1.0000
  N   N4        1.0  0.11923  0.75737  0.43480  1.0000
  C   C19       1.0  0.10032  0.85315  0.36257  1.0000
  C   C20       1.0  0.11251  0.84990  0.52435  1.0000
  H   H8        1.0  0.08853  0.83428  0.53664  1.0000
  H   H9        1.0  0.11955  0.31090  0.38853  1.0000
  H   H10       1.0  0.11955  0.81090  0.38853  1.0000
  C   C21       1.0  0.19619  0.26447  0.35038  1.0000
  O   O3        1.0  0.19251  0.21753  0.28053  1.0000
  H   H11       1.0  0.19562  0.21867  0.21476  1.0000
  N   N5        1.0  0.14119  0.24086  0.28868  1.0000
  C   C22       1.0  0.13914  0.40391  0.28443  1.0000
  H   H12       1.0  0.14686  0.41537  0.22317  1.0000
  C   C23       1.0  0.19636  0.43466  0.34894  1.0000
  C   C24       1.0  0.16102  0.24970  0.36361  1.0000
  C   C25       1.0  0.14772  0.25598  0.44321  1.0000
  C   C26       1.0  0.16424  0.26471  0.52547  1.0000
  O   O4        1.0  0.15051  0.26760  0.59253  1.0000
  H   H13       1.0  0.18023  0.25681  0.53788  1.0000
  C   C27       1.0  0.16118  0.41478  0.35891  1.0000
  N   N6        1.0  0.14983  0.39506  0.43332  1.0000
  C   C28       1.0  0.12003  0.36649  0.44204  1.0000
  O   O5        1.0  0.12930  0.36405  0.59081  1.0000
  C   C29       1.0  0.19619  0.76447  0.35038  1.0000
  O   O6        1.0  0.19251  0.71753  0.28053  1.0000
  H   H14       1.0  0.19562  0.71867  0.21476  1.0000
  N   N7        1.0  0.14119  0.74086  0.28868  1.0000
  C   C30       1.0  0.13914  0.90391  0.28443  1.0000
  H   H15       1.0  0.14686  0.91537  0.22317  1.0000
  C   C31       1.0  0.19636  0.93466  0.34894  1.0000
  C   C32       1.0  0.16102  0.74970  0.36361  1.0000
  C   C33       1.0  0.14772  0.75598  0.44321  1.0000
  C   C34       1.0  0.16424  0.76472  0.52547  1.0000
  O   O7        1.0  0.15050  0.76760  0.59253  1.0000
  H   H16       1.0  0.18023  0.75680  0.53788  1.0000
  C   C35       1.0  0.16118  0.91478  0.35891  1.0000
  N   N8        1.0  0.14983  0.89506  0.43332  1.0000
  C   C36       1.0  0.12003  0.86649  0.44204  1.0000
  O   O8        1.0  0.12930  0.86405  0.59081  1.0000
  C   C37       1.0  0.26779  0.24668  0.31061  1.0000
  C   C38       1.0  0.24926  0.26467  0.31085  1.0000
  C   C39       1.0  0.21319  0.24881  0.31236  1.0000
  C   C40       1.0  0.26758  0.02410  0.31074  1.0000
  C   C41       1.0  0.26728  0.07686  0.35117  1.0000
  C   C42       1.0  0.25168  0.04428  0.31261  1.0000
  C   C43       1.0  0.24963  0.48757  0.31040  1.0000
  C   C44       1.0  0.26550  0.46735  0.31200  1.0000
  C   C45       1.0  0.24969  0.43454  0.34904  1.0000
  O   O9        1.0  0.22045  0.03372  0.28051  1.0000
  H   H17       1.0  0.22167  0.03185  0.21473  1.0000
  N   N9        1.0  0.24377  0.10824  0.28903  1.0000
  C   C46       1.0  0.24103  0.13633  0.28532  1.0000
  H   H18       1.0  0.23775  0.14413  0.22367  1.0000
  C   C47       1.0  0.25128  0.21102  0.32147  1.0000
  C   C48       1.0  0.26744  0.19346  0.34960  1.0000
  H   H19       1.0  0.22613  0.19670  0.31899  1.0000
  C   C49       1.0  0.21543  0.29874  0.37089  1.0000
  C   C50       1.0  0.24958  0.31783  0.35051  1.0000
  C   C51       1.0  0.26572  0.30033  0.32161  1.0000
  H   H20       1.0  0.20317  0.31116  0.38958  1.0000
  C   C52       1.0  0.21533  0.41938  0.36823  1.0000
  C   C53       1.0  0.21396  0.46841  0.32104  1.0000
  H   H21       1.0  0.20280  0.39463  0.38627  1.0000
  H   H22       1.0  0.19964  0.47923  0.31838  1.0000
  C   C54       1.0  0.26442  0.41412  0.36253  1.0000
  C   C55       1.0  0.26473  0.35300  0.36022  1.0000
  N   N10       1.0  0.25645  0.36463  0.43420  1.0000
  C   C56       1.0  0.25788  0.39454  0.44231  1.0000
  C   C57       1.0  0.24888  0.40236  0.52425  1.0000
  O   O10       1.0  0.24756  0.38642  0.59148  1.0000
  H   H23       1.0  0.25652  0.42620  0.53606  1.0000
  C   C58       1.0  0.25252  0.09728  0.36420  1.0000
  C   C59       1.0  0.25215  0.15830  0.35997  1.0000
  N   N11       1.0  0.26019  0.14688  0.43478  1.0000
  C   C60       1.0  0.25877  0.11699  0.44354  1.0000
  C   C61       1.0  0.26743  0.10927  0.52602  1.0000
  O   O11       1.0  0.27032  0.12599  0.59287  1.0000
  H   H24       1.0  0.25947  0.08538  0.53867  1.0000
  C   C62       1.0  0.26779  0.74668  0.31061  1.0000
  C   C63       1.0  0.24926  0.76467  0.31085  1.0000
  C   C64       1.0  0.21318  0.74881  0.31236  1.0000
  C   C65       1.0  0.26758  0.52410  0.31074  1.0000
  C   C66       1.0  0.26728  0.57686  0.35117  1.0000
  C   C67       1.0  0.25168  0.54428  0.31261  1.0000
  C   C68       1.0  0.24963  0.98757  0.31040  1.0000
  C   C69       1.0  0.26550  0.96735  0.31200  1.0000
  C   C70       1.0  0.24969  0.93454  0.34904  1.0000
  O   O12       1.0  0.22045  0.53372  0.28051  1.0000
  H   H25       1.0  0.22167  0.53185  0.21473  1.0000
  N   N12       1.0  0.24377  0.60824  0.28903  1.0000
  C   C71       1.0  0.24103  0.63633  0.28532  1.0000
  H   H26       1.0  0.23775  0.64413  0.22367  1.0000
  C   C72       1.0  0.25128  0.71102  0.32147  1.0000
  C   C73       1.0  0.26744  0.69346  0.34960  1.0000
  H   H27       1.0  0.22613  0.69670  0.31899  1.0000
  C   C74       1.0  0.21542  0.79873  0.37089  1.0000
  C   C75       1.0  0.24958  0.81782  0.35051  1.0000
  C   C76       1.0  0.26572  0.80033  0.32161  1.0000
  H   H28       1.0  0.20317  0.81116  0.38958  1.0000
  C   C77       1.0  0.21533  0.91938  0.36823  1.0000
  C   C78       1.0  0.21396  0.96841  0.32104  1.0000
  H   H29       1.0  0.20280  0.89463  0.38627  1.0000
  H   H30       1.0  0.19964  0.97923  0.31838  1.0000
  C   C79       1.0  0.26442  0.91412  0.36253  1.0000
  C   C80       1.0  0.26473  0.85299  0.36022  1.0000
  N   N13       1.0  0.25645  0.86462  0.43420  1.0000
  C   C81       1.0  0.25788  0.89454  0.44231  1.0000
  C   C82       1.0  0.24888  0.90235  0.52425  1.0000
  O   O13       1.0  0.24755  0.88642  0.59148  1.0000
  H   H31       1.0  0.25652  0.92620  0.53606  1.0000
  C   C83       1.0  0.25252  0.59728  0.36420  1.0000
  C   C84       1.0  0.25215  0.65830  0.35997  1.0000
  N   N14       1.0  0.26019  0.64688  0.43478  1.0000
  C   C85       1.0  0.25877  0.61699  0.44354  1.0000
  C   C86       1.0  0.26743  0.60927  0.52602  1.0000
  O   O14       1.0  0.27032  0.62599  0.59287  1.0000
  H   H32       1.0  0.25947  0.58538  0.53867  1.0000
  N   N15       1.0  0.27351  0.40310  0.28816  1.0000
  N   N16       1.0  0.27351  0.90310  0.28816  1.0000
  C   C87       1.0  0.49036  0.24641  0.31037  1.0000
  C   C88       1.0  0.43732  0.19338  0.34919  1.0000
  C   C89       1.0  0.47010  0.21034  0.31190  1.0000
  O   O15       1.0  0.48074  0.18960  0.28084  1.0000
  H   H33       1.0  0.48274  0.19255  0.21502  1.0000
  C   C90       1.0  0.32089  0.24674  0.34901  1.0000
  C   C91       1.0  0.30387  0.26252  0.31186  1.0000
  O   O16       1.0  0.32455  0.29390  0.28072  1.0000
  H   H34       1.0  0.32161  0.29291  0.21491  1.0000
  O   O17       1.0  0.29697  0.47809  0.28160  1.0000
  H   H35       1.0  0.29613  0.47994  0.21570  1.0000
  C   C92       1.0  0.27615  0.37495  0.28550  1.0000
  H   H36       1.0  0.27992  0.36710  0.22449  1.0000
  N   N17       1.0  0.37590  0.27042  0.28754  1.0000
  C   C93       1.0  0.40681  0.27333  0.28424  1.0000
  H   H37       1.0  0.41801  0.27659  0.22279  1.0000
  N   N18       1.0  0.40592  0.13815  0.28844  1.0000
  C   C94       1.0  0.37775  0.10737  0.28583  1.0000
  H   H38       1.0  0.36985  0.09572  0.22486  1.0000
  C   C95       1.0  0.47123  0.26295  0.32101  1.0000
  C   C96       1.0  0.43749  0.24683  0.34902  1.0000
  C   C97       1.0  0.42224  0.21263  0.36886  1.0000
  H   H39       1.0  0.48205  0.28809  0.31789  1.0000
  H   H40       1.0  0.39750  0.20041  0.38687  1.0000
  C   C98       1.0  0.30168  0.21245  0.36912  1.0000
  H   H41       1.0  0.31388  0.19993  0.38741  1.0000
  H   H42       1.0  0.29084  0.31472  0.31772  1.0000
  C   C99       1.0  0.30324  0.04335  0.32131  1.0000
  C   C100      1.0  0.32065  0.07688  0.35115  1.0000
  C   C101      1.0  0.30149  0.09181  0.37228  1.0000
  H   H43       1.0  0.31772  0.03275  0.31670  1.0000
  H   H44       1.0  0.31389  0.11646  0.39123  1.0000
  C   C102      1.0  0.35604  0.26153  0.36241  1.0000
  C   C103      1.0  0.41762  0.26214  0.35886  1.0000
  N   N19       1.0  0.39791  0.25391  0.43328  1.0000
  C   C104      1.0  0.36938  0.25521  0.44187  1.0000
  C   C105      1.0  0.35280  0.24620  0.52402  1.0000
  O   O18       1.0  0.36658  0.24333  0.59100  1.0000
  H   H45       1.0  0.33668  0.25392  0.53661  1.0000
  C   C106      1.0  0.41693  0.15824  0.36287  1.0000
  C   C107      1.0  0.35584  0.09700  0.36059  1.0000
  N   N20       1.0  0.36745  0.11680  0.43475  1.0000
  C   C108      1.0  0.39741  0.14524  0.44276  1.0000
  C   C109      1.0  0.40532  0.16207  0.52468  1.0000
  O   O19       1.0  0.38940  0.14749  0.59198  1.0000
  H   H46       1.0  0.42918  0.17823  0.53638  1.0000
  C   C110      1.0  0.49036  0.74641  0.31037  1.0000
  C   C111      1.0  0.43732  0.69338  0.34919  1.0000
  C   C112      1.0  0.47010  0.71034  0.31190  1.0000
  O   O20       1.0  0.48074  0.68960  0.28084  1.0000
  H   H47       1.0  0.48274  0.69255  0.21502  1.0000
  C   C113      1.0  0.32089  0.74673  0.34901  1.0000
  C   C114      1.0  0.30387  0.76252  0.31186  1.0000
  O   O21       1.0  0.32455  0.79390  0.28072  1.0000
  H   H48       1.0  0.32161  0.79291  0.21491  1.0000
  O   O22       1.0  0.29697  0.97810  0.28160  1.0000
  H   H49       1.0  0.29614  0.97994  0.21570  1.0000
  C   C115      1.0  0.27615  0.87495  0.28550  1.0000
  H   H50       1.0  0.27992  0.86710  0.22449  1.0000
  N   N21       1.0  0.37590  0.77042  0.28754  1.0000
  C   C116      1.0  0.40681  0.77333  0.28424  1.0000
  H   H51       1.0  0.41801  0.77659  0.22279  1.0000
  N   N22       1.0  0.40592  0.63815  0.28844  1.0000
  C   C117      1.0  0.37775  0.60737  0.28583  1.0000
  H   H52       1.0  0.36985  0.59572  0.22486  1.0000
  C   C118      1.0  0.47123  0.76294  0.32101  1.0000
  C   C119      1.0  0.43749  0.74683  0.34902  1.0000
  C   C120      1.0  0.42224  0.71263  0.36886  1.0000
  H   H53       1.0  0.48205  0.78809  0.31790  1.0000
  H   H54       1.0  0.39750  0.70041  0.38687  1.0000
  C   C121      1.0  0.30168  0.71245  0.36912  1.0000
  H   H55       1.0  0.31388  0.69993  0.38741  1.0000
  H   H56       1.0  0.29084  0.81472  0.31772  1.0000
  C   C122      1.0  0.30324  0.54336  0.32131  1.0000
  C   C123      1.0  0.32065  0.57688  0.35115  1.0000
  C   C124      1.0  0.30149  0.59181  0.37228  1.0000
  H   H57       1.0  0.31772  0.53275  0.31670  1.0000
  H   H58       1.0  0.31389  0.61646  0.39123  1.0000
  C   C125      1.0  0.35604  0.76153  0.36241  1.0000
  C   C126      1.0  0.41762  0.76214  0.35886  1.0000
  N   N23       1.0  0.39791  0.75391  0.43328  1.0000
  C   C127      1.0  0.36938  0.75521  0.44187  1.0000
  C   C128      1.0  0.35280  0.74620  0.52402  1.0000
  O   O23       1.0  0.36658  0.74333  0.59100  1.0000
  H   H59       1.0  0.33668  0.75392  0.53661  1.0000
  C   C129      1.0  0.41693  0.65824  0.36287  1.0000
  C   C130      1.0  0.35584  0.59700  0.36059  1.0000
  N   N24       1.0  0.36745  0.61680  0.43475  1.0000
  C   C131      1.0  0.39741  0.64524  0.44276  1.0000
  C   C132      1.0  0.40532  0.66207  0.52468  1.0000
  O   O24       1.0  0.38940  0.64749  0.59198  1.0000
  H   H60       1.0  0.42918  0.67823  0.53638  1.0000
  C   C133      1.0  0.99036  0.24641  0.31037  1.0000
  C   C134      1.0  0.93732  0.19338  0.34919  1.0000
  C   C135      1.0  0.97010  0.21034  0.31190  1.0000
  C   C136      1.0  0.52689  0.26491  0.31050  1.0000
  C   C137      1.0  0.54715  0.30098  0.31186  1.0000
  C   C138      1.0  0.57981  0.31797  0.34988  1.0000
  O   O25       1.0  0.98074  0.18960  0.28084  1.0000
  O   O26       1.0  0.53655  0.32167  0.28012  1.0000
  H   H61       1.0  0.98274  0.19255  0.21502  1.0000
  H   H62       1.0  0.53461  0.31860  0.21434  1.0000
  C   C139      1.0  0.76779  0.24668  0.31061  1.0000
  C   C140      1.0  0.82089  0.24674  0.34901  1.0000
  C   C141      1.0  0.80387  0.26252  0.31186  1.0000
  C   C142      1.0  0.74926  0.26467  0.31085  1.0000
  C   C143      1.0  0.71318  0.24881  0.31236  1.0000
  C   C144      1.0  0.69619  0.26447  0.35038  1.0000
  O   O27       1.0  0.82455  0.29390  0.28072  1.0000
  O   O28       1.0  0.69251  0.21753  0.28053  1.0000
  H   H63       1.0  0.82161  0.29291  0.21491  1.0000
  H   H64       1.0  0.69562  0.21867  0.21476  1.0000
  C   C145      1.0  0.76758  0.02410  0.31074  1.0000
  C   C146      1.0  0.76728  0.07686  0.35117  1.0000
  C   C147      1.0  0.75169  0.04428  0.31261  1.0000
  C   C148      1.0  0.74963  0.48757  0.31040  1.0000
  C   C149      1.0  0.76550  0.46735  0.31200  1.0000
  C   C150      1.0  0.74969  0.43454  0.34904  1.0000
  O   O29       1.0  0.72045  0.03372  0.28051  1.0000
  O   O30       1.0  0.79697  0.47809  0.28160  1.0000
  H   H65       1.0  0.72167  0.03185  0.21473  1.0000
  H   H66       1.0  0.79613  0.47994  0.21570  1.0000
  N   N25       1.0  0.64119  0.24086  0.28868  1.0000
  C   C151      1.0  0.61035  0.23810  0.28550  1.0000
  H   H67       1.0  0.59914  0.23475  0.22400  1.0000
  N   N26       1.0  0.77351  0.40310  0.28816  1.0000
  C   C152      1.0  0.77615  0.37495  0.28550  1.0000
  H   H68       1.0  0.77992  0.36710  0.22449  1.0000
  N   N27       1.0  0.61109  0.37307  0.28780  1.0000
  C   C153      1.0  0.63914  0.40391  0.28443  1.0000
  H   H69       1.0  0.64686  0.41537  0.22317  1.0000
  N   N28       1.0  0.87590  0.27042  0.28754  1.0000
  C   C154      1.0  0.90681  0.27333  0.28424  1.0000
  H   H70       1.0  0.91801  0.27659  0.22279  1.0000
  N   N29       1.0  0.74377  0.10824  0.28903  1.0000
  C   C155      1.0  0.74103  0.13633  0.28532  1.0000
  H   H71       1.0  0.73775  0.14413  0.22367  1.0000
  N   N30       1.0  0.90592  0.13815  0.28844  1.0000
  C   C156      1.0  0.87775  0.10737  0.28583  1.0000
  H   H72       1.0  0.86985  0.09572  0.22486  1.0000
  C   C157      1.0  0.97123  0.26295  0.32101  1.0000
  C   C158      1.0  0.93749  0.24683  0.34902  1.0000
  C   C159      1.0  0.92224  0.21263  0.36886  1.0000
  H   H73       1.0  0.98205  0.28809  0.31789  1.0000
  H   H74       1.0  0.89750  0.20041  0.38687  1.0000
  C   C160      1.0  0.59486  0.29872  0.36997  1.0000
  C   C161      1.0  0.57968  0.26452  0.35013  1.0000
  C   C162      1.0  0.54602  0.24839  0.32148  1.0000
  H   H75       1.0  0.61955  0.31090  0.38853  1.0000
  H   H76       1.0  0.53522  0.22325  0.31855  1.0000
  C   C163      1.0  0.75128  0.21102  0.32147  1.0000
  C   C164      1.0  0.76745  0.19346  0.34960  1.0000
  C   C165      1.0  0.80168  0.21245  0.36912  1.0000
  H   H77       1.0  0.72613  0.19670  0.31899  1.0000
  H   H78       1.0  0.81388  0.19993  0.38741  1.0000
  C   C166      1.0  0.71542  0.29874  0.37089  1.0000
  C   C167      1.0  0.74958  0.31783  0.35051  1.0000
  C   C168      1.0  0.76572  0.30033  0.32161  1.0000
  H   H79       1.0  0.70317  0.31116  0.38958  1.0000
  H   H80       1.0  0.79084  0.31472  0.31772  1.0000
  C   C169      1.0  0.80324  0.04335  0.32131  1.0000
  C   C170      1.0  0.82065  0.07688  0.35115  1.0000
  C   C171      1.0  0.80149  0.09181  0.37228  1.0000
  H   H81       1.0  0.81772  0.03275  0.31670  1.0000
  H   H82       1.0  0.81389  0.11646  0.39123  1.0000
  C   C172      1.0  0.71533  0.41938  0.36823  1.0000
  C   C173      1.0  0.69636  0.43466  0.34894  1.0000
  C   C174      1.0  0.71396  0.46841  0.32104  1.0000
  H   H83       1.0  0.70280  0.39463  0.38627  1.0000
  H   H84       1.0  0.69964  0.47923  0.31838  1.0000
  C   C175      1.0  0.66102  0.24970  0.36361  1.0000
  C   C176      1.0  0.59960  0.24928  0.36030  1.0000
  N   N31       1.0  0.61923  0.25737  0.43480  1.0000
  C   C177      1.0  0.64772  0.25598  0.44321  1.0000
  C   C178      1.0  0.66424  0.26471  0.52547  1.0000
  O   O31       1.0  0.65050  0.26760  0.59253  1.0000
  H   H85       1.0  0.68023  0.25681  0.53788  1.0000
  C   C179      1.0  0.76442  0.41412  0.36253  1.0000
  C   C180      1.0  0.76473  0.35300  0.36022  1.0000
  N   N32       1.0  0.75645  0.36463  0.43420  1.0000
  C   C181      1.0  0.75788  0.39454  0.44231  1.0000
  C   C182      1.0  0.74888  0.40236  0.52425  1.0000
  O   O32       1.0  0.74756  0.38642  0.59148  1.0000
  H   H86       1.0  0.75652  0.42620  0.53606  1.0000
  C   C183      1.0  0.60032  0.35315  0.36257  1.0000
  C   C184      1.0  0.66118  0.41478  0.35891  1.0000
  N   N33       1.0  0.64984  0.39506  0.43332  1.0000
  C   C185      1.0  0.62003  0.36649  0.44204  1.0000
  C   C186      1.0  0.61251  0.34990  0.52435  1.0000
  O   O33       1.0  0.62930  0.36405  0.59081  1.0000
  H   H87       1.0  0.58853  0.33428  0.53664  1.0000
  C   C187      1.0  0.85604  0.26153  0.36241  1.0000
  C   C188      1.0  0.91762  0.26214  0.35886  1.0000
  N   N34       1.0  0.89791  0.25391  0.43328  1.0000
  C   C189      1.0  0.86938  0.25521  0.44187  1.0000
  C   C190      1.0  0.85280  0.24620  0.52402  1.0000
  O   O34       1.0  0.86658  0.24333  0.59100  1.0000
  H   H88       1.0  0.83668  0.25392  0.53661  1.0000
  C   C191      1.0  0.75252  0.09728  0.36420  1.0000
  C   C192      1.0  0.75215  0.15830  0.35997  1.0000
  N   N35       1.0  0.76019  0.14688  0.43478  1.0000
  C   C193      1.0  0.75877  0.11699  0.44354  1.0000
  C   C194      1.0  0.76743  0.10927  0.52602  1.0000
  O   O35       1.0  0.77032  0.12599  0.59287  1.0000
  H   H89       1.0  0.75947  0.08538  0.53867  1.0000
  C   C195      1.0  0.91693  0.15824  0.36287  1.0000
  C   C196      1.0  0.85584  0.09700  0.36059  1.0000
  N   N36       1.0  0.86745  0.11680  0.43475  1.0000
  C   C197      1.0  0.89741  0.14524  0.44276  1.0000
  C   C198      1.0  0.90532  0.16207  0.52468  1.0000
  O   O36       1.0  0.88940  0.14749  0.59198  1.0000
  H   H90       1.0  0.92918  0.17823  0.53638  1.0000
  C   C199      1.0  0.99036  0.74641  0.31037  1.0000
  C   C200      1.0  0.93732  0.69338  0.34919  1.0000
  C   C201      1.0  0.97010  0.71034  0.31190  1.0000
  C   C202      1.0  0.52688  0.76491  0.31050  1.0000
  C   C203      1.0  0.54715  0.80098  0.31186  1.0000
  C   C204      1.0  0.57981  0.81797  0.34988  1.0000
  O   O37       1.0  0.98074  0.68960  0.28084  1.0000
  O   O38       1.0  0.53655  0.82167  0.28012  1.0000
  H   H91       1.0  0.98274  0.69255  0.21502  1.0000
  H   H92       1.0  0.53460  0.81860  0.21434  1.0000
  C   C205      1.0  0.76779  0.74668  0.31061  1.0000
  C   C206      1.0  0.82089  0.74673  0.34901  1.0000
  C   C207      1.0  0.80387  0.76252  0.31186  1.0000
  C   C208      1.0  0.74926  0.76467  0.31085  1.0000
  C   C209      1.0  0.71318  0.74881  0.31236  1.0000
  C   C210      1.0  0.69619  0.76447  0.35038  1.0000
  O   O39       1.0  0.82455  0.79390  0.28072  1.0000
  O   O40       1.0  0.69251  0.71753  0.28053  1.0000
  H   H93       1.0  0.82161  0.79291  0.21491  1.0000
  H   H94       1.0  0.69562  0.71867  0.21476  1.0000
  C   C211      1.0  0.76758  0.52410  0.31074  1.0000
  C   C212      1.0  0.76728  0.57686  0.35117  1.0000
  C   C213      1.0  0.75169  0.54428  0.31261  1.0000
  C   C214      1.0  0.74963  0.98757  0.31040  1.0000
  C   C215      1.0  0.76550  0.96735  0.31200  1.0000
  C   C216      1.0  0.74969  0.93454  0.34904  1.0000
  O   O41       1.0  0.72045  0.53372  0.28051  1.0000
  O   O42       1.0  0.79697  0.97810  0.28160  1.0000
  H   H95       1.0  0.72167  0.53185  0.21473  1.0000
  H   H96       1.0  0.79613  0.97994  0.21570  1.0000
  N   N37       1.0  0.64119  0.74086  0.28868  1.0000
  C   C217      1.0  0.61034  0.73810  0.28550  1.0000
  H   H97       1.0  0.59913  0.73475  0.22400  1.0000
  N   N38       1.0  0.77351  0.90310  0.28816  1.0000
  C   C218      1.0  0.77615  0.87495  0.28550  1.0000
  H   H98       1.0  0.77992  0.86710  0.22449  1.0000
  N   N39       1.0  0.61109  0.87307  0.28780  1.0000
  C   C219      1.0  0.63914  0.90391  0.28443  1.0000
  H   H99       1.0  0.64686  0.91537  0.22317  1.0000
  N   N40       1.0  0.87590  0.77042  0.28754  1.0000
  C   C220      1.0  0.90681  0.77333  0.28424  1.0000
  H   H100      1.0  0.91802  0.77659  0.22279  1.0000
  N   N41       1.0  0.74377  0.60824  0.28903  1.0000
  C   C221      1.0  0.74103  0.63633  0.28532  1.0000
  H   H101      1.0  0.73775  0.64413  0.22367  1.0000
  N   N42       1.0  0.90592  0.63815  0.28844  1.0000
  C   C222      1.0  0.87775  0.60737  0.28583  1.0000
  H   H102      1.0  0.86985  0.59572  0.22486  1.0000
  C   C223      1.0  0.97123  0.76294  0.32101  1.0000
  C   C224      1.0  0.93749  0.74683  0.34902  1.0000
  C   C225      1.0  0.92224  0.71263  0.36886  1.0000
  H   H103      1.0  0.98205  0.78809  0.31790  1.0000
  H   H104      1.0  0.89750  0.70041  0.38687  1.0000
  C   C226      1.0  0.59486  0.79872  0.36997  1.0000
  C   C227      1.0  0.57968  0.76452  0.35013  1.0000
  C   C228      1.0  0.54602  0.74839  0.32148  1.0000
  H   H105      1.0  0.61955  0.81090  0.38853  1.0000
  H   H106      1.0  0.53522  0.72325  0.31855  1.0000
  C   C229      1.0  0.75128  0.71102  0.32147  1.0000
  C   C230      1.0  0.76744  0.69346  0.34960  1.0000
  C   C231      1.0  0.80168  0.71245  0.36912  1.0000
  H   H107      1.0  0.72612  0.69670  0.31899  1.0000
  H   H108      1.0  0.81388  0.69993  0.38741  1.0000
  C   C232      1.0  0.71542  0.79873  0.37089  1.0000
  C   C233      1.0  0.74958  0.81782  0.35051  1.0000
  C   C234      1.0  0.76572  0.80033  0.32161  1.0000
  H   H109      1.0  0.70317  0.81116  0.38958  1.0000
  H   H110      1.0  0.79084  0.81472  0.31772  1.0000
  C   C235      1.0  0.80324  0.54336  0.32131  1.0000
  C   C236      1.0  0.82065  0.57688  0.35115  1.0000
  C   C237      1.0  0.80149  0.59181  0.37228  1.0000
  H   H111      1.0  0.81772  0.53275  0.31670  1.0000
  H   H112      1.0  0.81389  0.61646  0.39123  1.0000
  C   C238      1.0  0.71533  0.91938  0.36823  1.0000
  C   C239      1.0  0.69636  0.93466  0.34894  1.0000
  C   C240      1.0  0.71396  0.96841  0.32104  1.0000
  H   H113      1.0  0.70280  0.89463  0.38627  1.0000
  H   H114      1.0  0.69964  0.97923  0.31838  1.0000
  C   C241      1.0  0.66102  0.74970  0.36361  1.0000
  C   C242      1.0  0.59960  0.74928  0.36030  1.0000
  N   N43       1.0  0.61923  0.75737  0.43480  1.0000
  C   C243      1.0  0.64772  0.75598  0.44321  1.0000
  C   C244      1.0  0.66424  0.76472  0.52547  1.0000
  O   O43       1.0  0.65050  0.76760  0.59253  1.0000
  H   H115      1.0  0.68023  0.75680  0.53788  1.0000
  C   C245      1.0  0.76442  0.91412  0.36253  1.0000
  C   C246      1.0  0.76473  0.85299  0.36022  1.0000
  N   N44       1.0  0.75645  0.86462  0.43420  1.0000
  C   C247      1.0  0.75788  0.89454  0.44231  1.0000
  C   C248      1.0  0.74888  0.90235  0.52425  1.0000
  O   O44       1.0  0.74755  0.88642  0.59148  1.0000
  H   H116      1.0  0.75652  0.92620  0.53606  1.0000
  C   C249      1.0  0.60032  0.85315  0.36257  1.0000
  C   C250      1.0  0.66118  0.91478  0.35891  1.0000
  N   N45       1.0  0.64983  0.89506  0.43332  1.0000
  C   C251      1.0  0.62003  0.86649  0.44204  1.0000
  C   C252      1.0  0.61251  0.84990  0.52435  1.0000
  O   O45       1.0  0.62930  0.86405  0.59081  1.0000
  H   H117      1.0  0.58854  0.83428  0.53664  1.0000
  C   C253      1.0  0.85604  0.76153  0.36241  1.0000
  C   C254      1.0  0.91762  0.76214  0.35886  1.0000
  N   N46       1.0  0.89791  0.75391  0.43328  1.0000
  C   C255      1.0  0.86938  0.75521  0.44187  1.0000
  C   C256      1.0  0.85280  0.74620  0.52402  1.0000
  O   O46       1.0  0.86658  0.74333  0.59100  1.0000
  H   H118      1.0  0.83668  0.75392  0.53661  1.0000
  C   C257      1.0  0.75252  0.59728  0.36420  1.0000
  C   C258      1.0  0.75215  0.65830  0.35997  1.0000
  N   N47       1.0  0.76019  0.64688  0.43478  1.0000
  C   C259      1.0  0.75877  0.61699  0.44354  1.0000
  C   C260      1.0  0.76743  0.60927  0.52602  1.0000
  O   O47       1.0  0.77032  0.62599  0.59287  1.0000
  H   H119      1.0  0.75947  0.58538  0.53867  1.0000
  C   C261      1.0  0.91693  0.65824  0.36287  1.0000
  C   C262      1.0  0.85584  0.59700  0.36059  1.0000
  N   N48       1.0  0.86745  0.61680  0.43475  1.0000
  C   C263      1.0  0.89741  0.64524  0.44276  1.0000
  C   C264      1.0  0.90532  0.66207  0.52468  1.0000
  O   O48       1.0  0.88940  0.64749  0.59198  1.0000
  H   H120      1.0  0.92918  0.67823  0.53638  1.0000
