data_image0
_chemical_formula_structural       HCHC6H6N2C6H6N2C2HC4HNH2NO2CHC2HC4HNH2NO2CHC2HC3NH2NO2CHC12H5CNC2NHN2C12H5CNC2NHN2C6H2NH2NO2CHC6H2NH2NO2CHC6H2NHNO2CH
_chemical_formula_sum              "H54 C84 N24 O12"
_cell_length_a       44.1727
_cell_length_b       44.1726
_cell_length_c       14.9869
_cell_angle_alpha    90
_cell_angle_beta     90
_cell_angle_gamma    120

_space_group_name_H-M_alt    "P 1"
_space_group_IT_number       1

loop_
  _space_group_symop_operation_xyz
  'x, y, z'

loop_
  _atom_site_type_symbol
  _atom_site_label
  _atom_site_symmetry_multiplicity
  _atom_site_fract_x
  _atom_site_fract_y
  _atom_site_fract_z
  _atom_site_occupancy
  H   H1        1.0  0.00514  0.55495  0.39980  1.0000
  C   C1        1.0  0.01916  0.50844  0.32568  1.0000
  H   H2        1.0  0.01719  0.46402  0.26642  1.0000
  C   C2        1.0  0.37129  0.74048  0.34304  1.0000
  C   C3        1.0  0.20484  0.63072  0.35476  1.0000
  C   C4        1.0  0.24164  0.64884  0.35477  1.0000
  C   C5        1.0  0.35399  0.75993  0.33123  1.0000
  C   C6        1.0  0.37266  0.79670  0.33021  1.0000
  C   C7        1.0  0.40933  0.81525  0.34102  1.0000
  H   H3        1.0  0.19199  0.64438  0.36384  1.0000
  H   H4        1.0  0.25437  0.67530  0.36449  1.0000
  H   H5        1.0  0.32747  0.74759  0.32277  1.0000
  H   H6        1.0  0.35926  0.80987  0.32230  1.0000
  H   H7        1.0  0.35670  0.54782  0.36391  1.0000
  H   H8        1.0  0.32579  0.57928  0.36450  1.0000
  N   N1        1.0  0.31678  0.68490  0.34334  1.0000
  N   N2        1.0  0.42789  0.84995  0.34278  1.0000
  C   C8        1.0  0.63256  0.26042  0.33601  1.0000
  C   C9        1.0  0.79749  0.37478  0.34465  1.0000
  C   C10       1.0  0.76075  0.35552  0.34294  1.0000
  C   C11       1.0  0.65117  0.24203  0.32989  1.0000
  C   C12       1.0  0.63369  0.20525  0.33092  1.0000
  C   C13       1.0  0.59706  0.18561  0.33976  1.0000
  H   H9        1.0  0.81101  0.36161  0.34840  1.0000
  H   H10       1.0  0.74888  0.32887  0.34690  1.0000
  H   H11       1.0  0.67781  0.25519  0.32398  1.0000
  H   H12       1.0  0.64798  0.19287  0.32596  1.0000
  H   H13       1.0  0.63949  0.44963  0.34846  1.0000
  H   H14       1.0  0.67222  0.42023  0.34690  1.0000
  N   N3        1.0  0.68572  0.31720  0.33520  1.0000
  N   N4        1.0  0.58178  0.15094  0.33842  1.0000
  C   C14       1.0  0.51897  0.47681  0.26404  1.0000
  C   C15       1.0  0.53972  0.46126  0.28060  1.0000
  H   H15       1.0  0.54695  0.45156  0.22770  1.0000
  C   C16       1.0  0.49264  0.51092  0.32566  1.0000
  C   C17       1.0  0.46231  0.55432  0.30290  1.0000
  C   C18       1.0  0.49712  0.56612  0.27430  1.0000
  C   C19       1.0  0.51178  0.54436  0.28642  1.0000
  H   H16       1.0  0.53705  0.55337  0.26634  1.0000
  N   N5        1.0  0.50839  0.47724  0.17891  1.0000
  H   H17       1.0  0.51453  0.46681  0.12999  1.0000
  H   H18       1.0  0.49322  0.48659  0.16457  1.0000
  N   N6        1.0  0.51715  0.59961  0.23488  1.0000
  O   O1        1.0  0.52613  0.59751  0.15656  1.0000
  O   O2        1.0  0.54408  0.61892  0.27974  1.0000
  C   C20       1.0  0.44706  0.57509  0.29111  1.0000
  H   H19       1.0  0.45536  0.59225  0.24119  1.0000
  C   C21       1.0  0.52427  0.04237  0.26402  1.0000
  C   C22       1.0  0.53983  0.07868  0.28057  1.0000
  H   H20       1.0  0.54953  0.09560  0.22766  1.0000
  C   C23       1.0  0.49016  0.98194  0.32568  1.0000
  C   C24       1.0  0.44676  0.90823  0.30291  1.0000
  C   C25       1.0  0.43496  0.93123  0.27432  1.0000
  C   C26       1.0  0.45672  0.96764  0.28645  1.0000
  H   H21       1.0  0.44771  0.98391  0.26638  1.0000
  N   N7        1.0  0.52384  0.03136  0.17891  1.0000
  H   H22       1.0  0.53427  0.04792  0.12999  1.0000
  H   H23       1.0  0.51449  0.00683  0.16458  1.0000
  N   N8        1.0  0.40146  0.91777  0.23492  1.0000
  O   O3        1.0  0.40356  0.92886  0.15661  1.0000
  O   O4        1.0  0.38216  0.92540  0.27980  1.0000
  C   C27       1.0  0.42598  0.87220  0.29111  1.0000
  H   H24       1.0  0.40881  0.86334  0.24122  1.0000
  C   C28       1.0  0.95872  0.48212  0.26404  1.0000
  C   C29       1.0  0.92242  0.46138  0.28059  1.0000
  H   H25       1.0  0.90550  0.45416  0.22768  1.0000
  C   C30       1.0  0.09287  0.53876  0.30288  1.0000
  C   C31       1.0  0.06986  0.50394  0.27432  1.0000
  C   C32       1.0  0.03345  0.48929  0.28646  1.0000
  N   N9        1.0  0.96972  0.49270  0.17892  1.0000
  H   H26       1.0  0.95317  0.48653  0.12997  1.0000
  H   H27       1.0  0.99426  0.50783  0.16455  1.0000
  N   N10       1.0  0.08332  0.48390  0.23493  1.0000
  O   O5        1.0  0.07224  0.47492  0.15663  1.0000
  O   O6        1.0  0.07570  0.45698  0.27983  1.0000
  C   C33       1.0  0.12889  0.55401  0.29105  1.0000
  H   H28       1.0  0.13775  0.54570  0.24115  1.0000
  C   C34       1.0  0.26062  0.63103  0.34302  1.0000
  C   C35       1.0  0.37006  0.62981  0.34308  1.0000
  C   C36       1.0  0.24116  0.59428  0.33121  1.0000
  C   C37       1.0  0.20440  0.57618  0.33018  1.0000
  C   C38       1.0  0.18585  0.59431  0.34092  1.0000
  C   C39       1.0  0.42674  0.79625  0.35484  1.0000
  C   C40       1.0  0.40807  0.75946  0.35482  1.0000
  C   C41       1.0  0.40682  0.64710  0.33130  1.0000
  C   C42       1.0  0.42491  0.62843  0.33029  1.0000
  C   C43       1.0  0.40678  0.59175  0.34108  1.0000
  C   C44       1.0  0.37037  0.57434  0.35482  1.0000
  C   C45       1.0  0.35225  0.59302  0.35484  1.0000
  H   H29       1.0  0.19122  0.54961  0.32227  1.0000
  H   H30       1.0  0.42181  0.74673  0.36451  1.0000
  H   H31       1.0  0.45327  0.80911  0.36390  1.0000
  H   H32       1.0  0.42099  0.67362  0.32283  1.0000
  H   H33       1.0  0.45148  0.64182  0.32239  1.0000
  C   C46       1.0  0.35173  0.64877  0.34341  1.0000
  N   N11       1.0  0.36899  0.68432  0.34337  1.0000
  C   C47       1.0  0.35233  0.70318  0.34339  1.0000
  C   C48       1.0  0.29791  0.64937  0.34338  1.0000
  N   N12       1.0  0.31620  0.63210  0.34335  1.0000
  H   H34       1.0  0.25351  0.58010  0.32277  1.0000
  N   N13       1.0  0.42292  0.57319  0.34283  1.0000
  N   N14       1.0  0.15115  0.57817  0.34272  1.0000
  C   C49       1.0  0.74068  0.37237  0.33603  1.0000
  C   C50       1.0  0.62873  0.36854  0.33603  1.0000
  C   C51       1.0  0.75906  0.40937  0.32993  1.0000
  C   C52       1.0  0.79585  0.42867  0.33095  1.0000
  C   C53       1.0  0.81548  0.41167  0.33979  1.0000
  C   C54       1.0  0.57816  0.20361  0.34464  1.0000
  C   C55       1.0  0.59565  0.24035  0.34294  1.0000
  C   C56       1.0  0.59173  0.34992  0.32995  1.0000
  C   C57       1.0  0.57243  0.36741  0.33098  1.0000
  C   C58       1.0  0.58943  0.40404  0.33990  1.0000
  C   C59       1.0  0.62632  0.42293  0.34467  1.0000
  C   C60       1.0  0.64558  0.40545  0.34295  1.0000
  H   H35       1.0  0.80822  0.45534  0.32602  1.0000
  H   H36       1.0  0.58086  0.25222  0.34693  1.0000
  H   H37       1.0  0.55147  0.19009  0.34841  1.0000
  H   H38       1.0  0.57825  0.32328  0.32401  1.0000
  H   H39       1.0  0.54576  0.35312  0.32606  1.0000
  C   C61       1.0  0.64835  0.35087  0.33512  1.0000
  N   N15       1.0  0.63235  0.31538  0.33520  1.0000
  C   C62       1.0  0.65023  0.29770  0.33511  1.0000
  C   C63       1.0  0.70339  0.35275  0.33512  1.0000
  N   N16       1.0  0.68390  0.36875  0.33520  1.0000
  H   H40       1.0  0.74590  0.42285  0.32402  1.0000
  N   N17       1.0  0.57003  0.41932  0.33851  1.0000
  N   N18       1.0  0.85016  0.43107  0.33845  1.0000
  C   C64       1.0  0.55167  0.45972  0.36719  1.0000
  C   C65       1.0  0.54218  0.47382  0.43990  1.0000
  C   C66       1.0  0.52156  0.48951  0.42383  1.0000
  C   C67       1.0  0.51008  0.49144  0.33713  1.0000
  C   C68       1.0  0.45778  0.49879  0.35468  1.0000
  C   C69       1.0  0.44330  0.52077  0.34255  1.0000
  H   H41       1.0  0.41803  0.51182  0.36243  1.0000
  H   H42       1.0  0.51559  0.50043  0.47643  1.0000
  N   N19       1.0  0.43770  0.46675  0.39239  1.0000
  H   H43       1.0  0.44613  0.45039  0.39983  1.0000
  H   H44       1.0  0.41377  0.45880  0.41106  1.0000
  N   N20       1.0  0.55355  0.47228  0.52741  1.0000
  O   O7        1.0  0.57236  0.50229  0.55963  1.0000
  O   O8        1.0  0.52813  0.45510  0.57889  1.0000
  C   C70       1.0  0.57445  0.44694  0.37886  1.0000
  H   H45       1.0  0.59472  0.45972  0.41976  1.0000
  C   C71       1.0  0.54139  0.09219  0.36715  1.0000
  C   C72       1.0  0.52729  0.06859  0.43988  1.0000
  C   C73       1.0  0.51159  0.03227  0.42383  1.0000
  C   C74       1.0  0.50965  0.01887  0.33713  1.0000
  C   C75       1.0  0.50229  0.95921  0.35469  1.0000
  C   C76       1.0  0.48030  0.92275  0.34255  1.0000
  H   H46       1.0  0.48925  0.90643  0.36242  1.0000
  H   H47       1.0  0.50068  0.01540  0.47644  1.0000
  N   N21       1.0  0.53433  0.97116  0.39237  1.0000
  H   H48       1.0  0.55070  0.99596  0.39983  1.0000
  H   H49       1.0  0.54228  0.95518  0.41104  1.0000
  N   N22       1.0  0.52884  0.08151  0.52739  1.0000
  O   O9        1.0  0.49883  0.07032  0.55962  1.0000
  O   O10       1.0  0.54603  0.07328  0.57886  1.0000
  C   C77       1.0  0.55416  0.12774  0.37881  1.0000
  H   H50       1.0  0.54138  0.13523  0.41971  1.0000
  C   C78       1.0  0.90891  0.44942  0.36717  1.0000
  C   C79       1.0  0.93251  0.45891  0.43990  1.0000
  C   C80       1.0  0.96883  0.47952  0.42383  1.0000
  C   C81       1.0  0.98223  0.49100  0.33714  1.0000
  C   C82       1.0  0.04189  0.54330  0.35466  1.0000
  C   C83       1.0  0.07835  0.55778  0.34251  1.0000
  H   H51       1.0  0.09467  0.58305  0.36236  1.0000
  H   H52       1.0  0.98570  0.48548  0.47644  1.0000
  N   N23       1.0  0.02993  0.56339  0.39234  1.0000
  H   H53       1.0  0.04591  0.58732  0.41099  1.0000
  N   N24       1.0  0.91959  0.44753  0.52739  1.0000
  O   O11       1.0  0.93078  0.42871  0.55961  1.0000
  O   O12       1.0  0.92783  0.47295  0.57888  1.0000
  C   C84       1.0  0.87336  0.42664  0.37884  1.0000
  H   H54       1.0  0.86587  0.40638  0.41973  1.0000
