data_image0
_chemical_formula_structural       C3NC3NC5NC4NC35H25C21H18C16H16C2H2C2H2C2H2C2H2C2H2C3H2C2H2C2H2C2H2C2H2C2H2C3H2C18H17C3NC3NC2NC5NC34H24C3NC3NC5NC5NC36H26C8H3NO2C8H3NO2C7H3NO2C8H3NO2C8H3NO2C7H3NO2
_chemical_formula_sum              "C276 N18 H168 O12"
_cell_length_a       67.3616
_cell_length_b       67.3615
_cell_length_c       14.946
_cell_angle_alpha    89.8032
_cell_angle_beta     90.1968
_cell_angle_gamma    120

_space_group_name_H-M_alt    "P 1"
_space_group_IT_number       1

loop_
  _space_group_symop_operation_xyz
  'x, y, z'

loop_
  _atom_site_type_symbol
  _atom_site_label
  _atom_site_symmetry_multiplicity
  _atom_site_fract_x
  _atom_site_fract_y
  _atom_site_fract_z
  _atom_site_occupancy
  C   C1        1.0  0.01867  0.48866  0.33852  1.0000
  C   C2        1.0  0.04235  0.50046  0.33816  1.0000
  C   C3        1.0  0.04991  0.52392  0.33557  1.0000
  N   N1        1.0  0.03058  0.52544  0.33456  1.0000
  C   C4        1.0  0.01120  0.50464  0.33630  1.0000
  C   C5        1.0  0.98786  0.49912  0.33569  1.0000
  C   C6        1.0  0.98037  0.51544  0.33443  1.0000
  N   N2        1.0  0.99337  0.53856  0.33498  1.0000
  C   C7        1.0  0.98045  0.54876  0.33376  1.0000
  C   C8        1.0  0.95766  0.53100  0.33215  1.0000
  C   C9        1.0  0.95761  0.51050  0.33286  1.0000
  C   C10       1.0  0.98802  0.57260  0.33428  1.0000
  C   C11       1.0  0.01140  0.59034  0.33539  1.0000
  N   N3        1.0  0.03072  0.58881  0.33447  1.0000
  C   C12       1.0  0.05010  0.60961  0.33627  1.0000
  C   C13       1.0  0.04264  0.62559  0.33844  1.0000
  C   C14       1.0  0.01896  0.61380  0.33797  1.0000
  C   C15       1.0  0.07344  0.61514  0.33574  1.0000
  N   N4        1.0  0.06793  0.57570  0.33515  1.0000
  C   C16       1.0  0.08085  0.56550  0.33395  1.0000
  C   C17       1.0  0.10364  0.58327  0.33229  1.0000
  C   C18       1.0  0.10369  0.60377  0.33296  1.0000
  C   C19       1.0  0.07328  0.54166  0.33455  1.0000
  C   C20       1.0  0.09050  0.53524  0.33458  1.0000
  C   C21       1.0  0.09774  0.53017  0.25363  1.0000
  C   C22       1.0  0.11581  0.52535  0.25310  1.0000
  C   C23       1.0  0.12729  0.52555  0.33310  1.0000
  C   C24       1.0  0.14643  0.52176  0.33205  1.0000
  C   C25       1.0  0.18259  0.52843  0.26477  1.0000
  C   C26       1.0  0.16335  0.53143  0.26435  1.0000
  C   C27       1.0  0.09071  0.63875  0.33728  1.0000
  C   C28       1.0  0.10028  0.65077  0.25688  1.0000
  C   C29       1.0  0.11831  0.67367  0.25878  1.0000
  C   C30       1.0  0.12735  0.68528  0.34083  1.0000
  C   C31       1.0  0.14632  0.70829  0.34262  1.0000
  C   C32       1.0  0.14798  0.72509  0.28096  1.0000
  C   C33       1.0  0.16697  0.74749  0.28123  1.0000
  C   C34       1.0  0.18489  0.75396  0.34400  1.0000
  C   C35       1.0  0.97082  0.57904  0.33421  1.0000
  C   C36       1.0  0.93432  0.58916  0.33275  1.0000
  C   C37       1.0  0.94558  0.58920  0.25267  1.0000
  C   C38       1.0  0.96350  0.58417  0.25320  1.0000
  C   C39       1.0  0.91539  0.59327  0.33176  1.0000
  C   C40       1.0  0.89831  0.58377  0.26434  1.0000
  C   C41       1.0  0.87931  0.58715  0.26470  1.0000
  C   C42       1.0  0.87649  0.60000  0.33303  1.0000
  C   C43       1.0  0.97057  0.47551  0.33721  1.0000
  C   C44       1.0  0.96079  0.46363  0.25682  1.0000
  C   C45       1.0  0.94262  0.44079  0.25874  1.0000
  C   C46       1.0  0.93363  0.42912  0.34079  1.0000
  C   C47       1.0  0.91445  0.40623  0.34260  1.0000
  C   C48       1.0  0.87541  0.36084  0.34386  1.0000
  C   C49       1.0  0.89319  0.36714  0.28091  1.0000
  C   C50       1.0  0.91241  0.38941  0.28068  1.0000
  H   H1        1.0  0.89235  0.35549  0.23508  1.0000
  H   H2        1.0  0.92507  0.39315  0.23492  1.0000
  H   H3        1.0  0.93546  0.43305  0.19916  1.0000
  H   H4        1.0  0.96644  0.47171  0.19642  1.0000
  H   H5        1.0  0.00874  0.47121  0.34018  1.0000
  H   H6        1.0  0.05221  0.49286  0.33971  1.0000
  H   H7        1.0  0.03061  0.53970  0.33185  1.0000
  H   H8        1.0  0.03069  0.57456  0.33174  1.0000
  H   H9        1.0  0.94317  0.49470  0.33211  1.0000
  H   H10       1.0  0.94325  0.53242  0.33081  1.0000
  H   H11       1.0  0.97098  0.58400  0.19392  1.0000
  H   H12       1.0  0.94084  0.59295  0.19268  1.0000
  H   H13       1.0  0.00910  0.62140  0.33947  1.0000
  H   H14       1.0  0.05256  0.64305  0.34013  1.0000
  H   H15       1.0  0.11812  0.61958  0.33212  1.0000
  H   H16       1.0  0.09456  0.64276  0.19647  1.0000
  H   H17       1.0  0.12531  0.68154  0.19919  1.0000
  H   H18       1.0  0.16754  0.75913  0.23561  1.0000
  H   H19       1.0  0.13520  0.72123  0.23535  1.0000
  H   H20       1.0  0.16227  0.54148  0.21530  1.0000
  H   H21       1.0  0.19469  0.53630  0.21592  1.0000
  H   H22       1.0  0.12051  0.52168  0.19313  1.0000
  H   H23       1.0  0.09014  0.53029  0.19437  1.0000
  H   H24       1.0  0.89913  0.57362  0.21544  1.0000
  H   H25       1.0  0.86709  0.57940  0.21604  1.0000
  C   C51       1.0  0.54051  0.51829  0.33654  1.0000
  C   C52       1.0  0.55827  0.51325  0.33492  1.0000
  C   C53       1.0  0.57877  0.53372  0.33560  1.0000
  C   C54       1.0  0.55911  0.65429  0.25637  1.0000
  C   C55       1.0  0.56393  0.67718  0.25582  1.0000
  C   C56       1.0  0.56088  0.74088  0.26736  1.0000
  C   C57       1.0  0.55786  0.71863  0.26703  1.0000
  C   C58       1.0  0.43853  0.53621  0.25936  1.0000
  C   C59       1.0  0.41563  0.53133  0.26109  1.0000
  C   C60       1.0  0.36420  0.50952  0.28294  1.0000
  C   C61       1.0  0.34180  0.50611  0.28297  1.0000
  C   C62       1.0  0.33531  0.51751  0.34549  1.0000
  C   C63       1.0  0.50007  0.44310  0.25541  1.0000
  C   C64       1.0  0.50510  0.46606  0.25595  1.0000
  C   C65       1.0  0.50551  0.40126  0.26705  1.0000
  C   C66       1.0  0.50215  0.37888  0.26739  1.0000
  C   C67       1.0  0.62561  0.58389  0.25928  1.0000
  C   C68       1.0  0.64845  0.58855  0.26104  1.0000
  C   C69       1.0  0.72845  0.60119  0.34535  1.0000
  C   C70       1.0  0.72211  0.61278  0.28264  1.0000
  C   C71       1.0  0.69985  0.60974  0.28267  1.0000
  H   H26       1.0  0.73374  0.62368  0.23676  1.0000
  H   H27       1.0  0.69608  0.61874  0.23703  1.0000
  H   H28       1.0  0.65618  0.58926  0.20140  1.0000
  H   H29       1.0  0.61751  0.58157  0.19895  1.0000
  H   H30       1.0  0.59458  0.53507  0.33485  1.0000
  H   H31       1.0  0.50528  0.47381  0.19668  1.0000
  H   H32       1.0  0.49633  0.43472  0.19541  1.0000
  H   H33       1.0  0.46788  0.47429  0.34207  1.0000
  H   H34       1.0  0.44656  0.53856  0.19901  1.0000
  H   H35       1.0  0.40777  0.53050  0.20142  1.0000
  H   H36       1.0  0.33018  0.49509  0.23733  1.0000
  H   H37       1.0  0.36808  0.50065  0.23753  1.0000
  H   H38       1.0  0.54781  0.70758  0.21798  1.0000
  H   H39       1.0  0.55298  0.74517  0.21858  1.0000
  H   H40       1.0  0.56759  0.68563  0.19584  1.0000
  H   H41       1.0  0.55897  0.64665  0.19712  1.0000
  H   H42       1.0  0.51566  0.41231  0.21813  1.0000
  H   H43       1.0  0.50988  0.37448  0.21870  1.0000
  C   C72       1.0  0.43509  0.99159  0.25755  1.0000
  C   C73       1.0  0.41220  0.97352  0.25653  1.0000
  C   C74       1.0  0.34850  0.90674  0.26675  1.0000
  C   C75       1.0  0.37074  0.92597  0.26687  1.0000
  C   C76       1.0  0.55308  0.98903  0.26176  1.0000
  C   C77       1.0  0.55798  0.97102  0.26355  1.0000
  C   C78       1.0  0.57977  0.94136  0.28553  1.0000
  C   C79       1.0  0.58317  0.92236  0.28558  1.0000
  C   C80       1.0  0.64606  0.14362  0.25605  1.0000
  C   C81       1.0  0.62311  0.12570  0.25706  1.0000
  C   C82       1.0  0.68793  0.19089  0.26673  1.0000
  C   C83       1.0  0.71031  0.20989  0.26658  1.0000
  C   C84       1.0  0.50537  0.12844  0.26167  1.0000
  C   C85       1.0  0.50068  0.14659  0.26347  1.0000
  C   C86       1.0  0.47649  0.19601  0.28522  1.0000
  C   C87       1.0  0.47952  0.17678  0.28522  1.0000
  H   H44       1.0  0.46559  0.19682  0.23937  1.0000
  H   H45       1.0  0.47052  0.16409  0.23959  1.0000
  H   H46       1.0  0.50000  0.15373  0.20385  1.0000
  H   H47       1.0  0.50768  0.12275  0.20130  1.0000
  H   H48       1.0  0.61528  0.11817  0.19796  1.0000
  H   H49       1.0  0.65437  0.14831  0.19588  1.0000
  H   H50       1.0  0.55073  0.99479  0.20140  1.0000
  H   H51       1.0  0.55878  0.96405  0.20391  1.0000
  H   H52       1.0  0.59418  0.92182  0.23994  1.0000
  H   H53       1.0  0.58864  0.95417  0.24007  1.0000
  H   H54       1.0  0.38186  0.92709  0.21803  1.0000
  H   H55       1.0  0.34427  0.89467  0.21782  1.0000
  H   H56       1.0  0.40382  0.96887  0.19639  1.0000
  H   H57       1.0  0.44280  0.99923  0.19845  1.0000
  H   H58       1.0  0.67681  0.19004  0.21811  1.0000
  H   H59       1.0  0.71464  0.22208  0.21786  1.0000
  C   C88       1.0  0.28421  0.52061  0.26588  1.0000
  C   C89       1.0  0.30562  0.52174  0.26782  1.0000
  H   H60       1.0  0.28015  0.52684  0.21054  1.0000
  H   H61       1.0  0.31625  0.52858  0.21377  1.0000
  C   C90       1.0  0.21363  0.50747  0.25888  1.0000
  C   C91       1.0  0.23402  0.50646  0.26064  1.0000
  H   H62       1.0  0.20438  0.50343  0.20068  1.0000
  H   H63       1.0  0.23876  0.50159  0.20357  1.0000
  C   C92       1.0  0.56867  0.85030  0.26852  1.0000
  C   C93       1.0  0.56753  0.87057  0.27046  1.0000
  H   H64       1.0  0.56244  0.84009  0.21317  1.0000
  H   H65       1.0  0.56070  0.87445  0.21640  1.0000
  C   C94       1.0  0.58182  0.79288  0.26150  1.0000
  C   C95       1.0  0.58282  0.81427  0.26327  1.0000
  H   H66       1.0  0.58586  0.78776  0.20330  1.0000
  H   H67       1.0  0.58769  0.82397  0.20619  1.0000
  C   C96       1.0  0.23906  0.80513  0.26543  1.0000
  C   C97       1.0  0.21878  0.78371  0.26694  1.0000
  H   H68       1.0  0.24935  0.80922  0.21033  1.0000
  H   H69       1.0  0.21500  0.77311  0.21286  1.0000
  C   C98       1.0  0.31050  0.88339  0.33700  1.0000
  C   C99       1.0  0.29650  0.87571  0.25971  1.0000
  C   C100      1.0  0.27511  0.85533  0.26098  1.0000
  H   H70       1.0  0.30172  0.88500  0.20162  1.0000
  H   H71       1.0  0.26550  0.85063  0.20368  1.0000
  C   C101      1.0  0.77886  0.59707  0.26565  1.0000
  C   C102      1.0  0.75764  0.59636  0.26763  1.0000
  H   H72       1.0  0.78266  0.59069  0.21040  1.0000
  H   H73       1.0  0.74690  0.58965  0.21373  1.0000
  C   C103      1.0  0.84896  0.60890  0.25838  1.0000
  C   C104      1.0  0.82881  0.61033  0.26014  1.0000
  H   H74       1.0  0.85811  0.61280  0.20012  1.0000
  H   H75       1.0  0.82412  0.61535  0.20299  1.0000
  C   C105      1.0  0.49223  0.26850  0.26827  1.0000
  C   C106      1.0  0.49295  0.24800  0.27025  1.0000
  H   H76       1.0  0.49860  0.27876  0.21300  1.0000
  H   H77       1.0  0.49963  0.24403  0.21631  1.0000
  C   C107      1.0  0.48039  0.32678  0.26104  1.0000
  C   C108      1.0  0.47897  0.30520  0.26278  1.0000
  H   H78       1.0  0.47650  0.33213  0.20277  1.0000
  H   H79       1.0  0.47395  0.29559  0.20562  1.0000
  C   C109      1.0  0.82068  0.31036  0.26521  1.0000
  C   C110      1.0  0.84117  0.33159  0.26679  1.0000
  H   H80       1.0  0.81034  0.30652  0.21015  1.0000
  H   H81       1.0  0.84506  0.34230  0.21280  1.0000
  C   C111      1.0  0.74850  0.23263  0.33656  1.0000
  C   C112      1.0  0.76240  0.24024  0.25918  1.0000
  C   C113      1.0  0.78398  0.26040  0.26046  1.0000
  H   H82       1.0  0.75697  0.23106  0.20101  1.0000
  H   H83       1.0  0.79351  0.26505  0.20310  1.0000
  C   C114      1.0  0.08093  0.59881  0.33452  1.0000
  C   C115      1.0  0.11963  0.53038  0.41404  1.0000
  C   C116      1.0  0.10154  0.53517  0.41493  1.0000
  C   C117      1.0  0.14955  0.50881  0.39988  1.0000
  C   C118      1.0  0.16888  0.50597  0.40081  1.0000
  C   C119      1.0  0.18579  0.51577  0.33335  1.0000
  C   C120      1.0  0.11735  0.67307  0.42101  1.0000
  C   C121      1.0  0.09936  0.65016  0.41945  1.0000
  C   C122      1.0  0.18337  0.73735  0.40586  1.0000
  C   C123      1.0  0.16444  0.71493  0.40504  1.0000
  C   C124      1.0  0.95998  0.57923  0.41460  1.0000
  C   C125      1.0  0.94203  0.58422  0.41373  1.0000
  C   C126      1.0  0.89354  0.60962  0.40025  1.0000
  C   C127      1.0  0.91265  0.60641  0.39934  1.0000
  C   C128      1.0  0.96200  0.46402  0.41938  1.0000
  C   C129      1.0  0.94386  0.44117  0.42095  1.0000
  C   C130      1.0  0.89647  0.39975  0.40521  1.0000
  C   C131      1.0  0.87732  0.37747  0.40601  1.0000
  H   H84       1.0  0.86448  0.37365  0.45103  1.0000
  H   H85       1.0  0.89678  0.41143  0.44960  1.0000
  H   H86       1.0  0.93818  0.43341  0.48181  1.0000
  H   H87       1.0  0.96869  0.47231  0.47861  1.0000
  H   H88       1.0  0.96475  0.57524  0.47407  1.0000
  H   H89       1.0  0.93409  0.58339  0.47297  1.0000
  H   H90       1.0  0.11805  0.58185  0.33094  1.0000
  H   H91       1.0  0.09280  0.64177  0.47869  1.0000
  H   H92       1.0  0.12307  0.68078  0.48187  1.0000
  H   H93       1.0  0.16440  0.70328  0.44924  1.0000
  H   H94       1.0  0.19632  0.74129  0.45078  1.0000
  H   H95       1.0  0.09686  0.53915  0.47433  1.0000
  H   H96       1.0  0.12774  0.53135  0.47321  1.0000
  H   H97       1.0  0.17042  0.49647  0.45112  1.0000
  H   H98       1.0  0.13764  0.50116  0.44947  1.0000
  H   H99       1.0  0.92469  0.61396  0.44869  1.0000
  H   H100      1.0  0.89229  0.61926  0.45033  1.0000
  C   C132      1.0  0.60061  0.61660  0.34122  1.0000
  C   C133      1.0  0.58882  0.62848  0.34088  1.0000
  C   C134      1.0  0.56536  0.61259  0.33834  1.0000
  N   N5        1.0  0.56383  0.59174  0.33734  1.0000
  C   C135      1.0  0.58463  0.59316  0.33904  1.0000
  C   C136      1.0  0.59015  0.57534  0.33839  1.0000
  C   C137      1.0  0.57383  0.55153  0.33715  1.0000
  N   N6        1.0  0.55071  0.54141  0.33775  1.0000
  C   C138      1.0  0.51668  0.50203  0.33707  1.0000
  C   C139      1.0  0.49893  0.50766  0.33814  1.0000
  N   N7        1.0  0.50046  0.52851  0.33725  1.0000
  C   C140      1.0  0.47966  0.52708  0.33898  1.0000
  C   C141      1.0  0.46368  0.50364  0.34106  1.0000
  C   C142      1.0  0.47547  0.49176  0.34061  1.0000
  C   C143      1.0  0.47414  0.54490  0.33847  1.0000
  C   C144      1.0  0.49046  0.56871  0.33731  1.0000
  N   N8        1.0  0.51357  0.57883  0.33794  1.0000
  C   C145      1.0  0.52377  0.60195  0.33676  1.0000
  C   C146      1.0  0.50601  0.60698  0.33509  1.0000
  C   C147      1.0  0.48550  0.58652  0.33573  1.0000
  C   C148      1.0  0.54761  0.61822  0.33733  1.0000
  C   C149      1.0  0.55404  0.64186  0.33735  1.0000
  C   C150      1.0  0.56374  0.68835  0.33580  1.0000
  C   C151      1.0  0.55889  0.67573  0.41675  1.0000
  C   C152      1.0  0.55413  0.65286  0.41768  1.0000
  C   C153      1.0  0.56753  0.71128  0.33472  1.0000
  C   C154      1.0  0.58048  0.72725  0.40254  1.0000
  C   C155      1.0  0.58333  0.74943  0.40345  1.0000
  C   C156      1.0  0.57352  0.75663  0.33598  1.0000
  C   C157      1.0  0.45052  0.53856  0.33986  1.0000
  C   C158      1.0  0.40399  0.52865  0.34305  1.0000
  C   C159      1.0  0.41617  0.53077  0.42333  1.0000
  C   C160      1.0  0.43909  0.53569  0.42194  1.0000
  C   C161      1.0  0.38097  0.52459  0.34463  1.0000
  C   C162      1.0  0.35189  0.53252  0.40739  1.0000
  C   C163      1.0  0.37431  0.53601  0.40680  1.0000
  C   C164      1.0  0.51023  0.47838  0.33697  1.0000
  C   C165      1.0  0.51002  0.46722  0.41737  1.0000
  C   C166      1.0  0.50504  0.44428  0.41646  1.0000
  C   C167      1.0  0.50010  0.43176  0.33548  1.0000
  C   C168      1.0  0.49601  0.40872  0.33448  1.0000
  C   C169      1.0  0.48929  0.36310  0.33569  1.0000
  C   C170      1.0  0.47967  0.37042  0.40294  1.0000
  C   C171      1.0  0.48287  0.39274  0.40203  1.0000
  C   C172      1.0  0.61377  0.58166  0.33977  1.0000
  C   C173      1.0  0.62529  0.58444  0.42185  1.0000
  C   C174      1.0  0.66016  0.59111  0.34299  1.0000
  C   C175      1.0  0.64813  0.58914  0.42326  1.0000
  C   C176      1.0  0.68306  0.59484  0.34462  1.0000
  C   C177      1.0  0.68957  0.58323  0.40703  1.0000
  C   C178      1.0  0.71185  0.58636  0.40755  1.0000
  H   H101      1.0  0.71569  0.57725  0.45242  1.0000
  H   H102      1.0  0.67791  0.57178  0.45144  1.0000
  H   H103      1.0  0.65592  0.59112  0.48406  1.0000
  H   H104      1.0  0.61701  0.58273  0.48114  1.0000
  H   H105      1.0  0.61807  0.62412  0.34285  1.0000
  H   H106      1.0  0.59642  0.64594  0.34242  1.0000
  H   H107      1.0  0.54957  0.57751  0.33464  1.0000
  H   H108      1.0  0.51472  0.54273  0.33470  1.0000
  H   H109      1.0  0.55684  0.49743  0.33363  1.0000
  H   H110      1.0  0.51403  0.47589  0.47683  1.0000
  H   H111      1.0  0.50588  0.43708  0.47570  1.0000
  H   H112      1.0  0.44623  0.49611  0.34269  1.0000
  H   H113      1.0  0.50742  0.62280  0.33373  1.0000
  H   H114      1.0  0.46970  0.58515  0.33488  1.0000
  H   H115      1.0  0.44745  0.53744  0.48124  1.0000
  H   H116      1.0  0.40843  0.52869  0.48413  1.0000
  H   H117      1.0  0.38593  0.54755  0.45108  1.0000
  H   H118      1.0  0.34792  0.54147  0.45217  1.0000
  H   H119      1.0  0.55012  0.64411  0.47708  1.0000
  H   H120      1.0  0.55794  0.68280  0.47592  1.0000
  H   H121      1.0  0.59282  0.76038  0.45376  1.0000
  H   H122      1.0  0.58813  0.72291  0.45214  1.0000
  H   H123      1.0  0.47532  0.39715  0.45140  1.0000
  H   H124      1.0  0.47003  0.35944  0.45299  1.0000
  C   C179      1.0  0.47267  0.07059  0.34319  1.0000
  C   C180      1.0  0.46079  0.04691  0.34268  1.0000
  C   C181      1.0  0.47668  0.03935  0.34026  1.0000
  N   N9        1.0  0.49754  0.05868  0.33947  1.0000
  C   C182      1.0  0.49611  0.07806  0.34120  1.0000
  C   C183      1.0  0.51393  0.10140  0.34068  1.0000
  C   C184      1.0  0.53774  0.10889  0.33939  1.0000
  N   N10       1.0  0.54786  0.09590  0.33988  1.0000
  C   C185      1.0  0.57098  0.10882  0.33850  1.0000
  C   C186      1.0  0.57601  0.13161  0.33689  1.0000
  C   C187      1.0  0.55555  0.13166  0.33779  1.0000
  C   C188      1.0  0.58724  0.10124  0.33887  1.0000
  C   C189      1.0  0.58162  0.07787  0.34010  1.0000
  N   N11       1.0  0.56077  0.05855  0.33942  1.0000
  C   C190      1.0  0.56220  0.03917  0.34121  1.0000
  C   C191      1.0  0.58564  0.04664  0.34321  1.0000
  C   C192      1.0  0.59752  0.07031  0.34257  1.0000
  C   C193      1.0  0.54438  0.01583  0.34078  1.0000
  C   C194      1.0  0.52057  0.00834  0.33955  1.0000
  N   N12       1.0  0.51044  0.02133  0.34008  1.0000
  C   C195      1.0  0.48732  0.00841  0.33876  1.0000
  C   C196      1.0  0.48230  0.98562  0.33711  1.0000
  C   C197      1.0  0.50276  0.98558  0.33791  1.0000
  C   C198      1.0  0.47106  0.01598  0.33917  1.0000
  C   C199      1.0  0.44742  0.99876  0.33876  1.0000
  C   C200      1.0  0.40093  0.96198  0.33628  1.0000
  C   C201      1.0  0.41345  0.96956  0.41747  1.0000
  C   C202      1.0  0.43632  0.98766  0.41886  1.0000
  C   C203      1.0  0.37800  0.94284  0.33472  1.0000
  C   C204      1.0  0.36195  0.93967  0.40223  1.0000
  C   C205      1.0  0.33976  0.92034  0.40265  1.0000
  C   C206      1.0  0.33265  0.90349  0.33501  1.0000
  C   C207      1.0  0.55073  0.99856  0.34223  1.0000
  C   C208      1.0  0.56064  0.96194  0.34554  1.0000
  C   C209      1.0  0.55852  0.97189  0.42579  1.0000
  C   C210      1.0  0.55359  0.98988  0.42435  1.0000
  C   C211      1.0  0.56469  0.94297  0.34718  1.0000
  C   C212      1.0  0.57177  0.90439  0.34811  1.0000
  C   C213      1.0  0.55678  0.90588  0.41004  1.0000
  C   C214      1.0  0.55329  0.92481  0.40942  1.0000
  C   C215      1.0  0.61089  0.11845  0.33834  1.0000
  C   C216      1.0  0.62215  0.12934  0.41849  1.0000
  C   C217      1.0  0.64508  0.14730  0.41711  1.0000
  C   C218      1.0  0.65750  0.15494  0.33587  1.0000
  C   C219      1.0  0.68055  0.17388  0.33437  1.0000
  C   C220      1.0  0.72618  0.21277  0.33460  1.0000
  C   C221      1.0  0.71895  0.19578  0.40203  1.0000
  C   C222      1.0  0.69662  0.17666  0.40162  1.0000
  C   C223      1.0  0.50760  0.11869  0.34212  1.0000
  C   C224      1.0  0.50483  0.12729  0.42423  1.0000
  C   C225      1.0  0.49815  0.15562  0.34546  1.0000
  C   C226      1.0  0.50013  0.14544  0.42569  1.0000
  C   C227      1.0  0.49443  0.17480  0.34713  1.0000
  C   C228      1.0  0.50604  0.19282  0.40956  1.0000
  C   C229      1.0  0.50294  0.21198  0.41007  1.0000
  C   C230      1.0  0.48810  0.21384  0.34792  1.0000
  H   H125      1.0  0.51204  0.22485  0.45498  1.0000
  H   H126      1.0  0.51750  0.19254  0.45393  1.0000
  H   H127      1.0  0.49816  0.15115  0.48651  1.0000
  H   H128      1.0  0.50655  0.12064  0.48351  1.0000
  H   H129      1.0  0.46514  0.08052  0.34477  1.0000
  H   H130      1.0  0.44332  0.03705  0.34406  1.0000
  H   H131      1.0  0.51176  0.05865  0.33701  1.0000
  H   H132      1.0  0.54654  0.05858  0.33682  1.0000
  H   H133      1.0  0.55419  0.14609  0.33700  1.0000
  H   H134      1.0  0.59183  0.14602  0.33548  1.0000
  H   H135      1.0  0.61356  0.12464  0.47812  1.0000
  H   H136      1.0  0.65237  0.15529  0.47619  1.0000
  H   H137      1.0  0.61498  0.08018  0.34389  1.0000
  H   H138      1.0  0.59317  0.03671  0.34481  1.0000
  H   H139      1.0  0.46648  0.97122  0.33564  1.0000
  H   H140      1.0  0.50413  0.97114  0.33707  1.0000
  H   H141      1.0  0.55184  0.99641  0.48363  1.0000
  H   H142      1.0  0.56059  0.96614  0.48661  1.0000
  H   H143      1.0  0.54173  0.92482  0.45361  1.0000
  H   H144      1.0  0.54780  0.89288  0.45476  1.0000
  H   H145      1.0  0.44500  0.99230  0.47843  1.0000
  H   H146      1.0  0.40631  0.96142  0.47651  1.0000
  H   H147      1.0  0.32874  0.91877  0.45272  1.0000
  H   H148      1.0  0.36621  0.95154  0.45193  1.0000
  H   H149      1.0  0.69227  0.16467  0.45112  1.0000
  H   H150      1.0  0.72998  0.19707  0.45189  1.0000
  C   C231      1.0  0.31289  0.51469  0.34427  1.0000
  C   C232      1.0  0.29793  0.50587  0.41886  1.0000
  C   C233      1.0  0.27628  0.50457  0.41523  1.0000
  C   C234      1.0  0.26908  0.51213  0.33973  1.0000
  C   C235      1.0  0.24766  0.51194  0.33902  1.0000
  C   C236      1.0  0.23969  0.51800  0.41612  1.0000
  C   C237      1.0  0.21919  0.51876  0.41477  1.0000
  C   C238      1.0  0.20589  0.51373  0.33585  1.0000
  H   H151      1.0  0.24918  0.52275  0.47374  1.0000
  H   H152      1.0  0.21451  0.52391  0.47136  1.0000
  H   H153      1.0  0.26562  0.49786  0.46916  1.0000
  N   N13       1.0  0.30471  0.49815  0.49510  1.0000
  O   O1        1.0  0.30544  0.50917  0.56390  1.0000
  O   O2        1.0  0.29134  0.47718  0.50935  1.0000
  C   C239      1.0  0.57458  0.88478  0.34691  1.0000
  C   C240      1.0  0.58340  0.87853  0.42150  1.0000
  C   C241      1.0  0.58470  0.85818  0.41787  1.0000
  C   C242      1.0  0.57715  0.84354  0.34236  1.0000
  C   C243      1.0  0.57736  0.82232  0.34165  1.0000
  C   C244      1.0  0.57131  0.80818  0.41877  1.0000
  C   C245      1.0  0.57054  0.78691  0.41741  1.0000
  C   C246      1.0  0.57557  0.77877  0.33848  1.0000
  H   H154      1.0  0.56653  0.81281  0.47635  1.0000
  H   H155      1.0  0.56537  0.77699  0.47397  1.0000
  H   H156      1.0  0.59142  0.85416  0.47180  1.0000
  N   N14       1.0  0.59112  0.89291  0.49774  1.0000
  O   O3        1.0  0.58010  0.88251  0.56654  1.0000
  O   O4        1.0  0.61209  0.90049  0.51198  1.0000
  C   C247      1.0  0.20448  0.77638  0.34313  1.0000
  C   C248      1.0  0.21062  0.79129  0.41781  1.0000
  C   C249      1.0  0.23097  0.81296  0.41460  1.0000
  C   C250      1.0  0.24572  0.82021  0.33940  1.0000
  C   C251      1.0  0.26695  0.84163  0.33917  1.0000
  C   C252      1.0  0.28097  0.84954  0.41661  1.0000
  C   C253      1.0  0.30224  0.87005  0.41576  1.0000
  H   H157      1.0  0.27625  0.83999  0.47409  1.0000
  H   H158      1.0  0.31208  0.87465  0.47251  1.0000
  H   H159      1.0  0.23492  0.82358  0.46860  1.0000
  N   N15       1.0  0.19613  0.78446  0.49376  1.0000
  O   O5        1.0  0.20645  0.78370  0.56279  1.0000
  O   O6        1.0  0.18853  0.79781  0.50783  1.0000
  C   C254      1.0  0.75070  0.60361  0.34402  1.0000
  C   C255      1.0  0.76580  0.61221  0.41846  1.0000
  C   C256      1.0  0.78726  0.61309  0.41477  1.0000
  C   C257      1.0  0.79412  0.60533  0.33935  1.0000
  C   C258      1.0  0.81532  0.60509  0.33862  1.0000
  C   C259      1.0  0.82321  0.59881  0.41582  1.0000
  C   C260      1.0  0.84350  0.59766  0.41451  1.0000
  C   C261      1.0  0.85663  0.60245  0.33548  1.0000
  H   H160      1.0  0.81382  0.59420  0.47352  1.0000
  H   H161      1.0  0.84810  0.59234  0.47114  1.0000
  H   H162      1.0  0.79803  0.61965  0.46859  1.0000
  N   N16       1.0  0.75936  0.62012  0.49464  1.0000
  O   O7        1.0  0.75853  0.60899  0.56357  1.0000
  O   O8        1.0  0.77304  0.64102  0.50862  1.0000
  C   C262      1.0  0.48568  0.23368  0.34661  1.0000
  C   C263      1.0  0.47708  0.24006  0.42105  1.0000
  C   C264      1.0  0.47620  0.26065  0.41738  1.0000
  C   C265      1.0  0.48398  0.27540  0.34198  1.0000
  C   C266      1.0  0.48421  0.29684  0.34125  1.0000
  C   C267      1.0  0.49048  0.31088  0.41847  1.0000
  C   C268      1.0  0.49166  0.33234  0.41713  1.0000
  C   C269      1.0  0.48685  0.34079  0.33813  1.0000
  H   H163      1.0  0.49509  0.30600  0.47617  1.0000
  H   H164      1.0  0.49694  0.34216  0.47380  1.0000
  H   H165      1.0  0.46964  0.26477  0.47121  1.0000
  N   N17       1.0  0.46916  0.22559  0.49721  1.0000
  O   O9        1.0  0.48029  0.23578  0.56616  1.0000
  O   O10       1.0  0.44826  0.21834  0.51117  1.0000
  C   C270      1.0  0.85559  0.33858  0.34289  1.0000
  C   C271      1.0  0.84931  0.32352  0.41742  1.0000
  C   C272      1.0  0.82873  0.30206  0.41414  1.0000
  C   C273      1.0  0.81388  0.29515  0.33903  1.0000
  C   C274      1.0  0.79245  0.27394  0.33876  1.0000
  C   C275      1.0  0.77852  0.26610  0.41628  1.0000
  C   C276      1.0  0.75705  0.24582  0.41540  1.0000
  H   H166      1.0  0.78346  0.27555  0.47384  1.0000
  H   H167      1.0  0.74731  0.24126  0.47225  1.0000
  H   H168      1.0  0.82468  0.29132  0.46804  1.0000
  N   N18       1.0  0.86388  0.33002  0.49329  1.0000
  O   O11       1.0  0.85378  0.33088  0.56245  1.0000
  O   O12       1.0  0.87116  0.31636  0.50707  1.0000
