data_image0
_chemical_formula_structural       C2NCNC2H3CH3C2NCNC2H3CH3C2NCNC2H3CH3C2NCNC2H3CH3C2NCNC2H3CH3C2NCNC2H3CH3C2HC6H3C2HC6H3C2HC6H3C2HC6H3C2HC6H3C2HC6H3C2HC6H3C2HC6H3C2HC6H3C2HC6H3C2HC6H3C2HC6H3C6H3C6H3C6H3C6H3C6H3C6H3C6H3C6H3C6H3C6H3C6H3C6H3C2HC6H3C2HC6H3C2HC6H3C2HC6H3C2HC6H3C2HC6H3C2NCNC2H3CH3C2NCNC2H3CH3C2NCNC2H3CH3C2NCNC2H3CH3C2NCNC2H3CH3C2NCNC2H3CH3C2NCNC2H3CH3C2NCNC2H3CH3C2NCNC2H3CH3C2NCNC2H3CH3C2NCNC2H3CH3C2NCNC2H3CH3
_chemical_formula_sum              "C324 N36 H216"
_cell_length_a       56.2283
_cell_length_b       56.2282
_cell_length_c       14.8964
_cell_angle_alpha    90
_cell_angle_beta     90
_cell_angle_gamma    120

_space_group_name_H-M_alt    "P 1"
_space_group_IT_number       1

loop_
  _space_group_symop_operation_xyz
  'x, y, z'

loop_
  _atom_site_type_symbol
  _atom_site_label
  _atom_site_symmetry_multiplicity
  _atom_site_fract_x
  _atom_site_fract_y
  _atom_site_fract_z
  _atom_site_occupancy
  C   C1        1.0  0.16347  0.32009  0.33752  1.0000
  C   C2        1.0  0.17132  0.33573  0.25691  1.0000
  N   N1        1.0  0.18530  0.36367  0.26236  1.0000
  C   C3        1.0  0.19256  0.37820  0.34030  1.0000
  N   N2        1.0  0.21448  0.42197  0.26290  1.0000
  C   C4        1.0  0.22846  0.44992  0.25828  1.0000
  C   C5        1.0  0.16550  0.32408  0.16509  1.0000
  H   H1        1.0  0.15428  0.30169  0.16444  1.0000
  H   H2        1.0  0.18480  0.33110  0.12921  1.0000
  H   H3        1.0  0.15327  0.33115  0.12910  1.0000
  C   C6        1.0  0.23490  0.46280  0.16828  1.0000
  H   H4        1.0  0.22719  0.44735  0.11511  1.0000
  H   H5        1.0  0.25709  0.47557  0.16031  1.0000
  H   H6        1.0  0.22546  0.47555  0.16025  1.0000
  C   C7        1.0  0.68273  0.83924  0.33752  1.0000
  C   C8        1.0  0.66709  0.83145  0.25689  1.0000
  N   N3        1.0  0.63915  0.81750  0.26232  1.0000
  C   C9        1.0  0.62462  0.81022  0.34026  1.0000
  N   N4        1.0  0.58086  0.78836  0.26285  1.0000
  C   C10       1.0  0.55290  0.77439  0.25822  1.0000
  C   C11       1.0  0.67875  0.83729  0.16508  1.0000
  H   H7        1.0  0.70113  0.84846  0.16444  1.0000
  H   H8        1.0  0.67173  0.84957  0.12921  1.0000
  H   H9        1.0  0.67169  0.81800  0.12909  1.0000
  C   C12       1.0  0.54003  0.76796  0.16821  1.0000
  H   H10       1.0  0.55548  0.77569  0.11505  1.0000
  H   H11       1.0  0.52725  0.77737  0.16023  1.0000
  H   H12       1.0  0.52728  0.74576  0.16017  1.0000
  C   C13       1.0  0.16357  0.83936  0.33753  1.0000
  C   C14       1.0  0.17136  0.83150  0.25691  1.0000
  N   N5        1.0  0.18532  0.81752  0.26237  1.0000
  C   C15       1.0  0.19259  0.81026  0.34030  1.0000
  N   N6        1.0  0.21444  0.78834  0.26292  1.0000
  C   C16       1.0  0.22841  0.77436  0.25830  1.0000
  C   C17       1.0  0.16553  0.83732  0.16509  1.0000
  H   H13       1.0  0.15436  0.84854  0.16444  1.0000
  H   H14       1.0  0.15324  0.81802  0.12922  1.0000
  H   H15       1.0  0.18482  0.84955  0.12910  1.0000
  C   C18       1.0  0.23485  0.76792  0.16830  1.0000
  H   H16       1.0  0.22712  0.77563  0.11513  1.0000
  H   H17       1.0  0.22543  0.74573  0.16032  1.0000
  H   H18       1.0  0.25704  0.77736  0.16027  1.0000
  C   C19       1.0  0.84305  0.67903  0.33754  1.0000
  C   C20       1.0  0.83519  0.66338  0.25692  1.0000
  N   N7        1.0  0.82121  0.63544  0.26239  1.0000
  C   C21       1.0  0.81396  0.62092  0.34032  1.0000
  N   N8        1.0  0.79204  0.57715  0.26296  1.0000
  C   C22       1.0  0.77806  0.54919  0.25835  1.0000
  C   C23       1.0  0.84101  0.67503  0.16510  1.0000
  H   H19       1.0  0.85222  0.69742  0.16444  1.0000
  H   H20       1.0  0.82171  0.66801  0.12923  1.0000
  H   H21       1.0  0.85324  0.66797  0.12912  1.0000
  C   C24       1.0  0.77162  0.53631  0.16836  1.0000
  H   H22       1.0  0.77933  0.55175  0.11518  1.0000
  H   H23       1.0  0.74943  0.52354  0.16038  1.0000
  H   H24       1.0  0.78106  0.52356  0.16033  1.0000
  C   C25       1.0  0.32380  0.15989  0.33753  1.0000
  C   C26       1.0  0.33944  0.16768  0.25691  1.0000
  N   N9        1.0  0.36738  0.18163  0.26237  1.0000
  C   C27       1.0  0.38190  0.18890  0.34030  1.0000
  N   N10       1.0  0.42568  0.21076  0.26292  1.0000
  C   C28       1.0  0.45363  0.22473  0.25830  1.0000
  C   C29       1.0  0.32779  0.16185  0.16509  1.0000
  H   H25       1.0  0.30540  0.15068  0.16444  1.0000
  H   H26       1.0  0.33481  0.14956  0.12922  1.0000
  H   H27       1.0  0.33485  0.18114  0.12911  1.0000
  C   C30       1.0  0.46650  0.23117  0.16830  1.0000
  H   H28       1.0  0.45106  0.22343  0.11513  1.0000
  H   H29       1.0  0.47928  0.22175  0.16033  1.0000
  H   H30       1.0  0.47926  0.25336  0.16027  1.0000
  C   C31       1.0  0.84293  0.15977  0.33752  1.0000
  C   C32       1.0  0.83514  0.16762  0.25689  1.0000
  N   N11       1.0  0.82118  0.18160  0.26234  1.0000
  C   C33       1.0  0.81391  0.18886  0.34027  1.0000
  N   N12       1.0  0.79205  0.21077  0.26287  1.0000
  C   C34       1.0  0.77807  0.22475  0.25824  1.0000
  C   C35       1.0  0.84098  0.16181  0.16509  1.0000
  H   H31       1.0  0.85215  0.15059  0.16444  1.0000
  H   H32       1.0  0.85326  0.18111  0.12921  1.0000
  H   H33       1.0  0.82169  0.14958  0.12910  1.0000
  C   C36       1.0  0.77164  0.23119  0.16824  1.0000
  H   H34       1.0  0.77938  0.22348  0.11507  1.0000
  H   H35       1.0  0.78106  0.25338  0.16026  1.0000
  H   H36       1.0  0.74945  0.22175  0.16021  1.0000
  C   C37       1.0  0.21444  0.18158  0.25759  1.0000
  C   C38       1.0  0.22903  0.16715  0.25999  1.0000
  H   H37       1.0  0.23453  0.16188  0.20089  1.0000
  C   C39       1.0  0.19238  0.20330  0.33985  1.0000
  C   C40       1.0  0.16343  0.23243  0.34155  1.0000
  C   C41       1.0  0.17077  0.22530  0.25925  1.0000
  C   C42       1.0  0.18523  0.21073  0.25725  1.0000
  C   C43       1.0  0.19272  0.20344  0.17569  1.0000
  C   C44       1.0  0.20718  0.18901  0.17586  1.0000
  H   H38       1.0  0.18774  0.20861  0.11553  1.0000
  H   H39       1.0  0.21238  0.18401  0.11583  1.0000
  H   H40       1.0  0.16551  0.23078  0.20007  1.0000
  C   C45       1.0  0.82124  0.02872  0.25760  1.0000
  C   C46       1.0  0.83567  0.05775  0.26000  1.0000
  H   H41       1.0  0.84095  0.06852  0.20089  1.0000
  C   C47       1.0  0.79952  0.98495  0.33985  1.0000
  C   C48       1.0  0.77039  0.92687  0.34156  1.0000
  C   C49       1.0  0.77752  0.94134  0.25926  1.0000
  C   C50       1.0  0.79209  0.97037  0.25726  1.0000
  C   C51       1.0  0.79938  0.98515  0.17570  1.0000
  C   C52       1.0  0.81381  0.01404  0.17587  1.0000
  H   H42       1.0  0.79422  0.97500  0.11554  1.0000
  H   H43       1.0  0.81881  0.02424  0.11583  1.0000
  H   H44       1.0  0.77204  0.93060  0.20008  1.0000
  C   C53       1.0  0.97410  0.78839  0.25759  1.0000
  C   C54       1.0  0.94508  0.77380  0.25999  1.0000
  H   H45       1.0  0.93430  0.76829  0.20089  1.0000
  C   C55       1.0  0.01787  0.81044  0.33984  1.0000
  C   C56       1.0  0.07595  0.83940  0.34155  1.0000
  C   C57       1.0  0.06148  0.83206  0.25925  1.0000
  C   C58       1.0  0.03245  0.81759  0.25725  1.0000
  C   C59       1.0  0.01768  0.81011  0.17569  1.0000
  C   C60       1.0  0.98878  0.79564  0.17586  1.0000
  H   H46       1.0  0.02782  0.81509  0.11553  1.0000
  H   H47       1.0  0.97858  0.79044  0.11582  1.0000
  H   H48       1.0  0.07222  0.83732  0.20007  1.0000
  C   C61       1.0  0.79208  0.81755  0.25760  1.0000
  C   C62       1.0  0.77750  0.83198  0.26000  1.0000
  H   H49       1.0  0.77199  0.83725  0.20089  1.0000
  C   C63       1.0  0.81414  0.79583  0.33985  1.0000
  C   C64       1.0  0.84308  0.76669  0.34155  1.0000
  C   C65       1.0  0.83574  0.77382  0.25925  1.0000
  C   C66       1.0  0.82128  0.78839  0.25725  1.0000
  C   C67       1.0  0.81380  0.79568  0.17569  1.0000
  C   C68       1.0  0.79934  0.81012  0.17587  1.0000
  H   H50       1.0  0.81878  0.79052  0.11553  1.0000
  H   H51       1.0  0.79414  0.81512  0.11583  1.0000
  H   H52       1.0  0.84100  0.76834  0.20007  1.0000
  C   C69       1.0  0.18528  0.97041  0.25759  1.0000
  C   C70       1.0  0.17084  0.94139  0.25999  1.0000
  H   H53       1.0  0.16557  0.93061  0.20089  1.0000
  C   C71       1.0  0.20700  0.01418  0.33985  1.0000
  C   C72       1.0  0.23613  0.07226  0.34155  1.0000
  C   C73       1.0  0.22900  0.05780  0.25925  1.0000
  C   C74       1.0  0.21443  0.02877  0.25725  1.0000
  C   C75       1.0  0.20714  0.01399  0.17569  1.0000
  C   C76       1.0  0.19271  0.98510  0.17587  1.0000
  H   H54       1.0  0.21230  0.02413  0.11553  1.0000
  H   H55       1.0  0.18770  0.97489  0.11583  1.0000
  H   H56       1.0  0.23448  0.06853  0.20008  1.0000
  C   C77       1.0  0.03241  0.21074  0.25760  1.0000
  C   C78       1.0  0.06144  0.22533  0.25999  1.0000
  H   H57       1.0  0.07221  0.23083  0.20089  1.0000
  C   C79       1.0  0.98864  0.18869  0.33985  1.0000
  C   C80       1.0  0.93056  0.15974  0.34156  1.0000
  C   C81       1.0  0.94503  0.16708  0.25926  1.0000
  C   C82       1.0  0.97406  0.18154  0.25726  1.0000
  C   C83       1.0  0.98883  0.18902  0.17570  1.0000
  C   C84       1.0  0.01773  0.20348  0.17587  1.0000
  H   H58       1.0  0.97869  0.18404  0.11554  1.0000
  H   H59       1.0  0.02793  0.20868  0.11583  1.0000
  H   H60       1.0  0.93429  0.16182  0.20008  1.0000
  C   C85       1.0  0.23235  0.58888  0.25671  1.0000
  C   C86       1.0  0.23543  0.56546  0.25960  1.0000
  H   H61       1.0  0.23877  0.55805  0.20090  1.0000
  C   C87       1.0  0.23107  0.62607  0.33885  1.0000
  C   C88       1.0  0.23814  0.67940  0.34180  1.0000
  C   C89       1.0  0.23619  0.66617  0.25912  1.0000
  C   C90       1.0  0.23274  0.63952  0.25646  1.0000
  C   C91       1.0  0.23310  0.62695  0.17479  1.0000
  C   C92       1.0  0.23288  0.60183  0.17491  1.0000
  H   H62       1.0  0.23472  0.63654  0.11485  1.0000
  H   H63       1.0  0.23436  0.59373  0.11504  1.0000
  H   H64       1.0  0.23963  0.67692  0.20039  1.0000
  C   C93       1.0  0.41390  0.63936  0.25693  1.0000
  C   C94       1.0  0.43733  0.66586  0.25981  1.0000
  H   H65       1.0  0.44473  0.67660  0.20111  1.0000
  C   C95       1.0  0.37674  0.60086  0.33911  1.0000
  C   C96       1.0  0.32346  0.55458  0.34214  1.0000
  C   C97       1.0  0.33665  0.56585  0.25938  1.0000
  C   C98       1.0  0.36328  0.58909  0.25673  1.0000
  C   C99       1.0  0.37581  0.60204  0.17506  1.0000
  C   C100      1.0  0.40093  0.62696  0.17516  1.0000
  H   H66       1.0  0.36621  0.59408  0.11513  1.0000
  H   H67       1.0  0.40900  0.63654  0.11529  1.0000
  H   H68       1.0  0.32586  0.55859  0.20069  1.0000
  C   C101      1.0  0.36345  0.77044  0.25697  1.0000
  C   C102      1.0  0.33694  0.76734  0.25989  1.0000
  H   H69       1.0  0.32622  0.76403  0.20116  1.0000
  C   C103      1.0  0.40196  0.77177  0.33909  1.0000
  C   C104      1.0  0.44824  0.76472  0.34205  1.0000
  C   C105      1.0  0.43691  0.76662  0.25936  1.0000
  C   C106      1.0  0.41370  0.77005  0.25671  1.0000
  C   C107      1.0  0.40076  0.76967  0.17504  1.0000
  C   C108      1.0  0.37586  0.76989  0.17516  1.0000
  H   H70       1.0  0.40867  0.76793  0.11511  1.0000
  H   H71       1.0  0.36623  0.76829  0.11532  1.0000
  H   H72       1.0  0.44417  0.76312  0.20061  1.0000
  C   C109      1.0  0.77419  0.41027  0.25681  1.0000
  C   C110      1.0  0.77113  0.43371  0.25964  1.0000
  H   H73       1.0  0.76772  0.44105  0.20094  1.0000
  C   C111      1.0  0.77548  0.37309  0.33903  1.0000
  C   C112      1.0  0.76843  0.31975  0.34210  1.0000
  C   C113      1.0  0.77034  0.33297  0.25938  1.0000
  C   C114      1.0  0.77378  0.35962  0.25667  1.0000
  C   C115      1.0  0.77339  0.37216  0.17498  1.0000
  C   C116      1.0  0.77363  0.39729  0.17505  1.0000
  H   H74       1.0  0.77171  0.36254  0.11507  1.0000
  H   H75       1.0  0.77210  0.40535  0.11518  1.0000
  H   H76       1.0  0.76685  0.32221  0.20065  1.0000
  C   C117      1.0  0.59257  0.35979  0.25667  1.0000
  C   C118      1.0  0.56916  0.33329  0.25952  1.0000
  H   H77       1.0  0.56175  0.32254  0.20081  1.0000
  C   C119      1.0  0.62976  0.39826  0.33887  1.0000
  C   C120      1.0  0.68308  0.44451  0.34189  1.0000
  C   C121      1.0  0.66986  0.43325  0.25918  1.0000
  C   C122      1.0  0.64321  0.41005  0.25650  1.0000
  C   C123      1.0  0.63065  0.39713  0.17482  1.0000
  C   C124      1.0  0.60552  0.37223  0.17490  1.0000
  H   H78       1.0  0.64024  0.40510  0.11488  1.0000
  H   H79       1.0  0.59744  0.36266  0.11502  1.0000
  H   H80       1.0  0.68061  0.44057  0.20047  1.0000
  C   C125      1.0  0.64306  0.22871  0.25689  1.0000
  C   C126      1.0  0.66956  0.23179  0.25973  1.0000
  H   H81       1.0  0.68031  0.23514  0.20103  1.0000
  C   C127      1.0  0.60456  0.22736  0.33910  1.0000
  C   C128      1.0  0.55828  0.23437  0.34217  1.0000
  C   C129      1.0  0.56954  0.23243  0.25940  1.0000
  C   C130      1.0  0.59278  0.22905  0.25673  1.0000
  C   C131      1.0  0.60573  0.22947  0.17506  1.0000
  C   C132      1.0  0.63064  0.22926  0.17512  1.0000
  H   H82       1.0  0.59776  0.23110  0.11512  1.0000
  H   H83       1.0  0.64022  0.23078  0.11525  1.0000
  H   H84       1.0  0.56228  0.23596  0.20072  1.0000
  C   C133      1.0  0.10506  0.24708  0.34105  1.0000
  C   C134      1.0  0.11980  0.23277  0.34132  1.0000
  C   C135      1.0  0.14884  0.24707  0.34068  1.0000
  C   C136      1.0  0.16315  0.27612  0.33929  1.0000
  C   C137      1.0  0.14884  0.29086  0.33878  1.0000
  C   C138      1.0  0.11980  0.27612  0.33976  1.0000
  H   H85       1.0  0.18420  0.28663  0.33878  1.0000
  H   H86       1.0  0.10927  0.28664  0.33961  1.0000
  H   H87       1.0  0.10927  0.21172  0.34240  1.0000
  C   C139      1.0  0.75574  0.85386  0.34106  1.0000
  C   C140      1.0  0.77005  0.88290  0.34132  1.0000
  C   C141      1.0  0.75575  0.89764  0.34069  1.0000
  C   C142      1.0  0.72670  0.88290  0.33929  1.0000
  C   C143      1.0  0.71196  0.85385  0.33879  1.0000
  C   C144      1.0  0.72670  0.83954  0.33976  1.0000
  H   H88       1.0  0.71618  0.89343  0.33879  1.0000
  H   H89       1.0  0.71618  0.81850  0.33961  1.0000
  H   H90       1.0  0.79110  0.89342  0.34241  1.0000
  C   C145      1.0  0.14896  0.89776  0.34105  1.0000
  C   C146      1.0  0.11992  0.88303  0.34130  1.0000
  C   C147      1.0  0.10518  0.85399  0.34068  1.0000
  C   C148      1.0  0.11992  0.83968  0.33928  1.0000
  C   C149      1.0  0.14897  0.85398  0.33878  1.0000
  C   C150      1.0  0.16328  0.88303  0.33976  1.0000
  H   H91       1.0  0.10939  0.81863  0.33879  1.0000
  H   H92       1.0  0.18432  0.89355  0.33961  1.0000
  H   H93       1.0  0.10940  0.89355  0.34240  1.0000
  C   C151      1.0  0.90145  0.75204  0.34104  1.0000
  C   C152      1.0  0.88671  0.76635  0.34129  1.0000
  C   C153      1.0  0.85767  0.75205  0.34067  1.0000
  C   C154      1.0  0.84336  0.72300  0.33928  1.0000
  C   C155      1.0  0.85767  0.70826  0.33878  1.0000
  C   C156      1.0  0.88671  0.72300  0.33976  1.0000
  H   H94       1.0  0.82232  0.71248  0.33879  1.0000
  H   H95       1.0  0.89724  0.71248  0.33961  1.0000
  H   H96       1.0  0.89724  0.78740  0.34240  1.0000
  C   C157      1.0  0.25078  0.14528  0.34105  1.0000
  C   C158      1.0  0.23647  0.11624  0.34130  1.0000
  C   C159      1.0  0.25078  0.10150  0.34068  1.0000
  C   C160      1.0  0.27982  0.11623  0.33929  1.0000
  C   C161      1.0  0.29456  0.14528  0.33879  1.0000
  C   C162      1.0  0.27983  0.15959  0.33976  1.0000
  H   H97       1.0  0.29034  0.10570  0.33879  1.0000
  H   H98       1.0  0.29035  0.18064  0.33961  1.0000
  H   H99       1.0  0.21543  0.10571  0.34240  1.0000
  C   C163      1.0  0.85755  0.10137  0.34105  1.0000
  C   C164      1.0  0.88659  0.11611  0.34131  1.0000
  C   C165      1.0  0.90133  0.14515  0.34069  1.0000
  C   C166      1.0  0.88659  0.15946  0.33929  1.0000
  C   C167      1.0  0.85754  0.14515  0.33879  1.0000
  C   C168      1.0  0.84323  0.11611  0.33976  1.0000
  H   H100      1.0  0.89712  0.18051  0.33879  1.0000
  H   H101      1.0  0.82219  0.10558  0.33961  1.0000
  H   H102      1.0  0.89711  0.10559  0.34241  1.0000
  C   C169      1.0  0.29436  0.53841  0.34208  1.0000
  C   C170      1.0  0.27949  0.55248  0.34239  1.0000
  C   C171      1.0  0.25055  0.53824  0.34191  1.0000
  C   C172      1.0  0.23623  0.50923  0.34065  1.0000
  C   C173      1.0  0.25072  0.49461  0.34023  1.0000
  C   C174      1.0  0.27984  0.50939  0.34102  1.0000
  H   H103      1.0  0.21520  0.49876  0.34020  1.0000
  H   H104      1.0  0.29052  0.49905  0.34065  1.0000
  H   H105      1.0  0.28998  0.57357  0.34309  1.0000
  C   C175      1.0  0.46441  0.75180  0.34195  1.0000
  C   C176      1.0  0.45034  0.72285  0.34235  1.0000
  C   C177      1.0  0.46458  0.70816  0.34189  1.0000
  C   C178      1.0  0.49359  0.72285  0.34064  1.0000
  C   C179      1.0  0.50821  0.75196  0.34013  1.0000
  C   C180      1.0  0.49342  0.76629  0.34086  1.0000
  H   H106      1.0  0.50406  0.71229  0.34028  1.0000
  H   H107      1.0  0.50377  0.78732  0.34046  1.0000
  H   H108      1.0  0.42925  0.71224  0.34312  1.0000
  C   C181      1.0  0.25103  0.70849  0.34197  1.0000
  C   C182      1.0  0.27997  0.72337  0.34238  1.0000
  C   C183      1.0  0.29466  0.75231  0.34201  1.0000
  C   C184      1.0  0.27995  0.76661  0.34081  1.0000
  C   C185      1.0  0.25084  0.75211  0.34024  1.0000
  C   C186      1.0  0.23653  0.72300  0.34088  1.0000
  H   H109      1.0  0.29051  0.78765  0.34048  1.0000
  H   H110      1.0  0.21550  0.71230  0.34040  1.0000
  H   H111      1.0  0.29060  0.71290  0.34308  1.0000
  C   C187      1.0  0.71217  0.46071  0.34207  1.0000
  C   C188      1.0  0.72705  0.44664  0.34239  1.0000
  C   C189      1.0  0.75599  0.46089  0.34200  1.0000
  C   C190      1.0  0.77030  0.48990  0.34078  1.0000
  C   C191      1.0  0.75580  0.50451  0.34031  1.0000
  C   C192      1.0  0.72669  0.48972  0.34102  1.0000
  H   H112      1.0  0.79134  0.50037  0.34037  1.0000
  H   H113      1.0  0.71600  0.50006  0.34057  1.0000
  H   H114      1.0  0.71657  0.42554  0.34303  1.0000
  C   C193      1.0  0.54211  0.24730  0.34211  1.0000
  C   C194      1.0  0.55619  0.27624  0.34239  1.0000
  C   C195      1.0  0.54195  0.29095  0.34191  1.0000
  C   C196      1.0  0.51294  0.27626  0.34064  1.0000
  C   C197      1.0  0.49831  0.24715  0.34025  1.0000
  C   C198      1.0  0.51310  0.23282  0.34106  1.0000
  H   H115      1.0  0.50248  0.28683  0.34017  1.0000
  H   H116      1.0  0.50274  0.21178  0.34071  1.0000
  H   H117      1.0  0.57728  0.28685  0.34307  1.0000
  C   C199      1.0  0.75551  0.29066  0.34202  1.0000
  C   C200      1.0  0.72656  0.27580  0.34238  1.0000
  C   C201      1.0  0.71185  0.24685  0.34191  1.0000
  C   C202      1.0  0.72654  0.23253  0.34065  1.0000
  C   C203      1.0  0.75566  0.24702  0.34017  1.0000
  C   C204      1.0  0.76999  0.27613  0.34093  1.0000
  H   H118      1.0  0.71598  0.21150  0.34026  1.0000
  H   H119      1.0  0.79102  0.28681  0.34054  1.0000
  H   H120      1.0  0.71595  0.28628  0.34312  1.0000
  C   C205      1.0  0.18518  0.36348  0.42261  1.0000
  C   C206      1.0  0.17064  0.33446  0.42005  1.0000
  H   H121      1.0  0.16522  0.32365  0.47910  1.0000
  C   C207      1.0  0.20713  0.40730  0.34059  1.0000
  C   C208      1.0  0.23618  0.46538  0.33918  1.0000
  C   C209      1.0  0.22891  0.45088  0.42141  1.0000
  C   C210      1.0  0.21439  0.42185  0.42326  1.0000
  C   C211      1.0  0.20696  0.40703  0.50474  1.0000
  C   C212      1.0  0.19249  0.37813  0.50442  1.0000
  H   H122      1.0  0.21200  0.41714  0.56495  1.0000
  H   H123      1.0  0.18735  0.36790  0.56440  1.0000
  H   H124      1.0  0.23424  0.46158  0.48064  1.0000
  C   C213      1.0  0.63933  0.81755  0.42258  1.0000
  C   C214      1.0  0.66836  0.83204  0.42004  1.0000
  H   H125      1.0  0.67916  0.83743  0.47909  1.0000
  C   C215      1.0  0.59552  0.79568  0.34054  1.0000
  C   C216      1.0  0.53744  0.76665  0.33910  1.0000
  C   C217      1.0  0.55194  0.77388  0.42134  1.0000
  C   C218      1.0  0.58097  0.78839  0.42320  1.0000
  C   C219      1.0  0.59578  0.79578  0.50469  1.0000
  C   C220      1.0  0.62468  0.81021  0.50438  1.0000
  H   H126      1.0  0.58567  0.79071  0.56489  1.0000
  H   H127      1.0  0.63491  0.81530  0.56437  1.0000
  H   H128      1.0  0.54123  0.76850  0.48057  1.0000
  C   C221      1.0  0.18526  0.81765  0.42262  1.0000
  C   C222      1.0  0.17077  0.83218  0.42006  1.0000
  H   H129      1.0  0.16539  0.83761  0.47910  1.0000
  C   C223      1.0  0.20712  0.79569  0.34060  1.0000
  C   C224      1.0  0.23615  0.76664  0.33920  1.0000
  C   C225      1.0  0.22892  0.77392  0.42142  1.0000
  C   C226      1.0  0.21441  0.78844  0.42327  1.0000
  C   C227      1.0  0.20703  0.79587  0.50475  1.0000
  C   C228      1.0  0.19260  0.81034  0.50442  1.0000
  H   H130      1.0  0.21210  0.79083  0.56496  1.0000
  H   H131      1.0  0.18750  0.81548  0.56441  1.0000
  H   H132      1.0  0.23430  0.76859  0.48065  1.0000
  C   C229      1.0  0.82134  0.63564  0.42264  1.0000
  C   C230      1.0  0.83587  0.66466  0.42007  1.0000
  H   H133      1.0  0.84130  0.67547  0.47911  1.0000
  C   C231      1.0  0.79939  0.59182  0.34063  1.0000
  C   C232      1.0  0.77034  0.53374  0.33925  1.0000
  C   C233      1.0  0.77762  0.54824  0.42147  1.0000
  C   C234      1.0  0.79213  0.57728  0.42331  1.0000
  C   C235      1.0  0.79957  0.59210  0.50478  1.0000
  C   C236      1.0  0.81403  0.62099  0.50444  1.0000
  H   H134      1.0  0.79453  0.58199  0.56500  1.0000
  H   H135      1.0  0.81917  0.63123  0.56443  1.0000
  H   H136      1.0  0.77229  0.53754  0.48071  1.0000
  C   C237      1.0  0.36719  0.18158  0.42262  1.0000
  C   C238      1.0  0.33817  0.16708  0.42006  1.0000
  H   H137      1.0  0.32736  0.16170  0.47910  1.0000
  C   C239      1.0  0.41101  0.20344  0.34060  1.0000
  C   C240      1.0  0.46909  0.23247  0.33920  1.0000
  C   C241      1.0  0.45458  0.22523  0.42142  1.0000
  C   C242      1.0  0.42555  0.21072  0.42328  1.0000
  C   C243      1.0  0.41073  0.20334  0.50475  1.0000
  C   C244      1.0  0.38184  0.18891  0.50442  1.0000
  H   H138      1.0  0.42084  0.20840  0.56496  1.0000
  H   H139      1.0  0.37160  0.18381  0.56441  1.0000
  H   H140      1.0  0.46529  0.23060  0.48066  1.0000
  C   C245      1.0  0.82124  0.18148  0.42259  1.0000
  C   C246      1.0  0.83573  0.16695  0.42005  1.0000
  H   H141      1.0  0.84112  0.16153  0.47910  1.0000
  C   C247      1.0  0.79937  0.20342  0.34056  1.0000
  C   C248      1.0  0.77033  0.23247  0.33913  1.0000
  C   C249      1.0  0.77757  0.22520  0.42136  1.0000
  C   C250      1.0  0.79208  0.21069  0.42322  1.0000
  C   C251      1.0  0.79946  0.20325  0.50471  1.0000
  C   C252      1.0  0.81390  0.18879  0.50439  1.0000
  H   H142      1.0  0.79440  0.20830  0.56491  1.0000
  H   H143      1.0  0.81900  0.18365  0.56438  1.0000
  H   H144      1.0  0.77219  0.23053  0.48059  1.0000
  C   C253      1.0  0.23614  0.15986  0.34244  1.0000
  C   C254      1.0  0.22813  0.16745  0.42316  1.0000
  N   N13       1.0  0.21412  0.18137  0.41786  1.0000
  C   C255      1.0  0.20695  0.18876  0.33999  1.0000
  N   N14       1.0  0.18495  0.21049  0.41760  1.0000
  C   C256      1.0  0.17099  0.22449  0.42236  1.0000
  C   C257      1.0  0.23383  0.16143  0.51490  1.0000
  H   H145      1.0  0.24510  0.15031  0.51542  1.0000
  H   H146      1.0  0.21447  0.14902  0.55037  1.0000
  H   H147      1.0  0.24595  0.18065  0.55137  1.0000
  C   C258      1.0  0.16443  0.23076  0.51243  1.0000
  H   H148      1.0  0.17206  0.22293  0.56552  1.0000
  H   H149      1.0  0.14222  0.22133  0.52013  1.0000
  H   H150      1.0  0.17385  0.25294  0.52087  1.0000
  C   C259      1.0  0.84296  0.07215  0.34244  1.0000
  C   C260      1.0  0.83538  0.05656  0.42316  1.0000
  N   N15       1.0  0.82145  0.02862  0.41786  1.0000
  C   C261      1.0  0.81406  0.01405  0.33999  1.0000
  N   N16       1.0  0.79233  0.97032  0.41761  1.0000
  C   C262      1.0  0.77833  0.94237  0.42237  1.0000
  C   C263      1.0  0.84140  0.06827  0.51490  1.0000
  H   H151      1.0  0.85251  0.09065  0.51543  1.0000
  H   H152      1.0  0.85380  0.06132  0.55038  1.0000
  H   H153      1.0  0.82218  0.06118  0.55137  1.0000
  C   C264      1.0  0.77206  0.92954  0.51244  1.0000
  H   H154      1.0  0.77989  0.94500  0.56553  1.0000
  H   H155      1.0  0.78150  0.91677  0.52014  1.0000
  H   H156      1.0  0.74988  0.91678  0.52088  1.0000
  C   C265      1.0  0.93067  0.76668  0.34244  1.0000
  C   C266      1.0  0.94627  0.77469  0.42316  1.0000
  N   N17       1.0  0.97420  0.78871  0.41785  1.0000
  C   C267      1.0  0.98877  0.79588  0.33999  1.0000
  N   N18       1.0  0.03250  0.81788  0.41760  1.0000
  C   C268      1.0  0.06045  0.83184  0.42236  1.0000
  C   C269      1.0  0.93455  0.76900  0.51490  1.0000
  H   H157      1.0  0.91217  0.75773  0.51542  1.0000
  H   H158      1.0  0.94150  0.78835  0.55037  1.0000
  H   H159      1.0  0.94164  0.75687  0.55136  1.0000
  C   C270      1.0  0.07328  0.83840  0.51243  1.0000
  H   H160      1.0  0.05782  0.83076  0.56552  1.0000
  H   H161      1.0  0.08605  0.86060  0.52013  1.0000
  H   H162      1.0  0.08604  0.82898  0.52087  1.0000
  C   C271      1.0  0.77038  0.83927  0.34245  1.0000
  C   C272      1.0  0.77839  0.83169  0.42316  1.0000
  N   N19       1.0  0.79241  0.81776  0.41786  1.0000
  C   C273      1.0  0.79957  0.81037  0.33999  1.0000
  N   N20       1.0  0.82157  0.78863  0.41760  1.0000
  C   C274      1.0  0.83552  0.77463  0.42236  1.0000
  C   C275      1.0  0.77270  0.83771  0.51490  1.0000
  H   H163      1.0  0.76143  0.84882  0.51543  1.0000
  H   H164      1.0  0.79205  0.85011  0.55038  1.0000
  H   H165      1.0  0.76057  0.81849  0.55137  1.0000
  C   C276      1.0  0.84209  0.76836  0.51243  1.0000
  H   H166      1.0  0.83445  0.77619  0.56552  1.0000
  H   H167      1.0  0.86429  0.77780  0.52013  1.0000
  H   H168      1.0  0.83266  0.74618  0.52087  1.0000
  C   C277      1.0  0.16355  0.92698  0.34244  1.0000
  C   C278      1.0  0.17114  0.94258  0.42316  1.0000
  N   N21       1.0  0.18506  0.97052  0.41786  1.0000
  C   C279      1.0  0.19246  0.98508  0.33999  1.0000
  N   N22       1.0  0.21419  0.02881  0.41760  1.0000
  C   C280      1.0  0.22819  0.05676  0.42236  1.0000
  C   C281      1.0  0.16512  0.93087  0.51490  1.0000
  H   H169      1.0  0.15400  0.90848  0.51542  1.0000
  H   H170      1.0  0.15272  0.93782  0.55038  1.0000
  H   H171      1.0  0.18434  0.93796  0.55137  1.0000
  C   C282      1.0  0.23446  0.06960  0.51243  1.0000
  H   H172      1.0  0.22663  0.05413  0.56552  1.0000
  H   H173      1.0  0.22503  0.08237  0.52013  1.0000
  H   H174      1.0  0.25664  0.08235  0.52087  1.0000
  C   C283      1.0  0.07584  0.23244  0.34244  1.0000
  C   C284      1.0  0.06025  0.22443  0.42316  1.0000
  N   N23       1.0  0.03231  0.21042  0.41786  1.0000
  C   C285      1.0  0.01774  0.20325  0.33999  1.0000
  N   N24       1.0  0.97401  0.18125  0.41761  1.0000
  C   C286      1.0  0.94606  0.16730  0.42237  1.0000
  C   C287      1.0  0.07196  0.23012  0.51490  1.0000
  H   H175      1.0  0.09434  0.24139  0.51542  1.0000
  H   H176      1.0  0.06501  0.21077  0.55038  1.0000
  H   H177      1.0  0.06487  0.24225  0.55137  1.0000
  C   C288      1.0  0.93323  0.16074  0.51244  1.0000
  H   H178      1.0  0.94869  0.16837  0.56553  1.0000
  H   H179      1.0  0.92046  0.13853  0.52013  1.0000
  H   H180      1.0  0.92048  0.17016  0.52088  1.0000
  C   C289      1.0  0.23744  0.55422  0.34236  1.0000
  C   C290      1.0  0.23520  0.56660  0.42281  1.0000
  N   N25       1.0  0.23225  0.58913  0.41710  1.0000
  C   C291      1.0  0.23094  0.60086  0.33894  1.0000
  N   N26       1.0  0.23232  0.63913  0.41695  1.0000
  C   C292      1.0  0.23557  0.66475  0.42235  1.0000
  C   C293      1.0  0.23802  0.55821  0.51465  1.0000
  H   H181      1.0  0.23958  0.53964  0.51543  1.0000
  H   H182      1.0  0.22011  0.55424  0.55446  1.0000
  H   H183      1.0  0.25637  0.57472  0.54634  1.0000
  C   C294      1.0  0.23816  0.67671  0.51286  1.0000
  H   H184      1.0  0.23511  0.66191  0.56548  1.0000
  H   H185      1.0  0.22274  0.68290  0.52131  1.0000
  H   H186      1.0  0.25855  0.69463  0.52148  1.0000
  C   C295      1.0  0.44861  0.67905  0.34263  1.0000
  C   C296      1.0  0.43622  0.66446  0.42306  1.0000
  N   N27       1.0  0.41369  0.63898  0.41735  1.0000
  C   C297      1.0  0.40195  0.62595  0.33918  1.0000
  N   N28       1.0  0.36371  0.58905  0.41723  1.0000
  C   C298      1.0  0.33810  0.56668  0.42267  1.0000
  C   C299      1.0  0.44467  0.67567  0.51486  1.0000
  H   H187      1.0  0.46324  0.69580  0.51554  1.0000
  H   H188      1.0  0.44867  0.66174  0.55458  1.0000
  H   H189      1.0  0.42818  0.67752  0.54669  1.0000
  C   C300      1.0  0.32613  0.55729  0.51315  1.0000
  H   H190      1.0  0.34091  0.56904  0.56578  1.0000
  H   H191      1.0  0.31996  0.53568  0.52158  1.0000
  H   H192      1.0  0.30819  0.55972  0.52174  1.0000
  C   C301      1.0  0.32377  0.76545  0.34271  1.0000
  C   C302      1.0  0.33837  0.76768  0.42312  1.0000
  N   N29       1.0  0.36385  0.77062  0.41737  1.0000
  C   C303      1.0  0.37688  0.77190  0.33920  1.0000
  N   N30       1.0  0.41378  0.77054  0.41718  1.0000
  C   C304      1.0  0.43614  0.76729  0.42254  1.0000
  C   C305      1.0  0.32716  0.76487  0.51493  1.0000
  H   H193      1.0  0.30703  0.76331  0.51566  1.0000
  H   H194      1.0  0.34109  0.78279  0.55473  1.0000
  H   H195      1.0  0.32532  0.74653  0.54666  1.0000
  C   C306      1.0  0.44552  0.76470  0.51302  1.0000
  H   H196      1.0  0.43378  0.76774  0.56567  1.0000
  H   H197      1.0  0.46713  0.78012  0.52146  1.0000
  H   H198      1.0  0.44306  0.74431  0.52161  1.0000
  C   C307      1.0  0.76911  0.44490  0.34245  1.0000
  C   C308      1.0  0.77136  0.43258  0.42297  1.0000
  N   N31       1.0  0.77432  0.41005  0.41723  1.0000
  C   C309      1.0  0.77563  0.39831  0.33908  1.0000
  N   N32       1.0  0.77424  0.36005  0.41715  1.0000
  C   C310      1.0  0.77099  0.33443  0.42256  1.0000
  C   C311      1.0  0.76855  0.44098  0.51478  1.0000
  H   H199      1.0  0.76698  0.45954  0.51552  1.0000
  H   H200      1.0  0.78646  0.44496  0.55460  1.0000
  H   H201      1.0  0.75020  0.42447  0.54649  1.0000
  C   C312      1.0  0.76838  0.32247  0.51306  1.0000
  H   H202      1.0  0.77141  0.33725  0.56568  1.0000
  H   H203      1.0  0.78380  0.31628  0.52155  1.0000
  H   H204      1.0  0.74800  0.30454  0.52164  1.0000
  C   C313      1.0  0.55795  0.32005  0.34228  1.0000
  C   C314      1.0  0.57029  0.33463  0.42280  1.0000
  N   N33       1.0  0.59282  0.36012  0.41709  1.0000
  C   C315      1.0  0.60455  0.37317  0.33893  1.0000
  N   N34       1.0  0.64281  0.41005  0.41700  1.0000
  C   C316      1.0  0.66843  0.43242  0.42242  1.0000
  C   C317      1.0  0.56189  0.32342  0.51462  1.0000
  H   H205      1.0  0.54333  0.30330  0.51539  1.0000
  H   H206      1.0  0.55792  0.33736  0.55443  1.0000
  H   H207      1.0  0.57840  0.32158  0.54633  1.0000
  C   C318      1.0  0.68039  0.44177  0.51294  1.0000
  H   H208      1.0  0.66559  0.43002  0.56555  1.0000
  H   H209      1.0  0.68658  0.46339  0.52141  1.0000
  H   H210      1.0  0.69831  0.43931  0.52155  1.0000
  C   C319      1.0  0.68275  0.23373  0.34255  1.0000
  C   C320      1.0  0.66818  0.23151  0.42304  1.0000
  N   N35       1.0  0.64269  0.22854  0.41732  1.0000
  C   C321      1.0  0.62965  0.22726  0.33916  1.0000
  N   N36       1.0  0.59275  0.22859  0.41724  1.0000
  C   C322      1.0  0.57038  0.23184  0.42269  1.0000
  C   C323      1.0  0.67939  0.23427  0.51483  1.0000
  H   H211      1.0  0.69952  0.23584  0.51551  1.0000
  H   H212      1.0  0.66546  0.21634  0.55455  1.0000
  H   H213      1.0  0.68123  0.25260  0.54668  1.0000
  C   C324      1.0  0.56101  0.23442  0.51317  1.0000
  H   H214      1.0  0.57276  0.23140  0.56580  1.0000
  H   H215      1.0  0.53940  0.21899  0.52163  1.0000
  H   H216      1.0  0.56344  0.25480  0.52176  1.0000
