data_image0
_chemical_formula_structural       C2NCHC2NCH7C5HC6HC4NH5C6N2H6C6N2H6CNHCNHCNHCNHCNHCNHC3HN2H2C3HNC3NH3C3HNC3NH3C2NHC3NCH3C2NCH3C3NCH3C3NCH3C3NCH3C3NH5C6N2H6C6N2H6CNHCNHCNHCNHCNHCNHC3HN2H2C3HNC3NH3C3HNC3NH3C2NHC3NCH3C2NCH3C3NCH3C3NCH3C3NCH3C6N2H5C6N2H6C6N2H6CNHCNHCNHCNHCNHCNHC3HNC3NH3C3HNC3NH3C3HNC3NH3C3NCH3C3NCH3C3NCH3C3NCH3C3NCH3C3NCH3C6N2H5C6N2H6C6N2H6CNHCNHCNHCNHCNHCNHC3HNC3NH3C3HNC3NH3C3HNC3NH3C3NCH3C3NCH3C3NCH3C3NCH3C3NCH3C3NCH3
_chemical_formula_sum              "C264 N96 H216"
_cell_length_a       45.8101
_cell_length_b       45.81
_cell_length_c       14.9385
_cell_angle_alpha    90
_cell_angle_beta     90
_cell_angle_gamma    120

_space_group_name_H-M_alt    "P 1"
_space_group_IT_number       1

loop_
  _space_group_symop_operation_xyz
  'x, y, z'

loop_
  _atom_site_type_symbol
  _atom_site_label
  _atom_site_symmetry_multiplicity
  _atom_site_fract_x
  _atom_site_fract_y
  _atom_site_fract_z
  _atom_site_occupancy
  C   C1        1.0  0.02040  0.26065  0.30336  1.0000
  C   C2        1.0  0.04068  0.29670  0.29270  1.0000
  N   N1        1.0  0.03042  0.31330  0.23622  1.0000
  C   C3        1.0  0.03833  0.24406  0.32965  1.0000
  H   H1        1.0  0.02648  0.21846  0.33497  1.0000
  C   C4        1.0  0.02040  0.76065  0.30336  1.0000
  C   C5        1.0  0.04068  0.79670  0.29270  1.0000
  N   N2        1.0  0.03042  0.81329  0.23622  1.0000
  C   C6        1.0  0.03833  0.74406  0.32965  1.0000
  H   H2        1.0  0.02648  0.71846  0.33497  1.0000
  H   H3        1.0  0.01182  0.30091  0.19494  1.0000
  H   H4        1.0  0.01181  0.80091  0.19494  1.0000
  H   H5        1.0  0.04383  0.33739  0.22550  1.0000
  H   H6        1.0  0.05918  0.21733  0.49285  1.0000
  H   H7        1.0  0.04383  0.83739  0.22550  1.0000
  H   H8        1.0  0.05918  0.71733  0.49285  1.0000
  C   C7        1.0  0.07280  0.31502  0.33606  1.0000
  C   C8        1.0  0.08751  0.29660  0.37281  1.0000
  C   C9        1.0  0.07216  0.26141  0.35771  1.0000
  C   C10       1.0  0.09300  0.24718  0.34059  1.0000
  C   C11       1.0  0.08266  0.21671  0.49119  1.0000
  H   H9        1.0  0.07647  0.19055  0.49898  1.0000
  C   C12       1.0  0.09478  0.35004  0.32278  1.0000
  C   C13       1.0  0.07279  0.81502  0.33606  1.0000
  C   C14       1.0  0.08751  0.79660  0.37281  1.0000
  C   C15       1.0  0.07216  0.76141  0.35771  1.0000
  C   C16       1.0  0.09300  0.74718  0.34059  1.0000
  C   C17       1.0  0.08266  0.71672  0.49119  1.0000
  H   H10       1.0  0.07646  0.69055  0.49898  1.0000
  C   C18       1.0  0.09478  0.85004  0.32278  1.0000
  C   C19       1.0  0.48411  0.24171  0.29376  1.0000
  C   C20       1.0  0.42908  0.18776  0.29428  1.0000
  C   C21       1.0  0.46450  0.20608  0.27577  1.0000
  N   N3        1.0  0.47835  0.19001  0.23046  1.0000
  H   H11       1.0  0.99952  0.20306  0.19867  1.0000
  H   H12       1.0  0.46482  0.16672  0.21118  1.0000
  H   H13       1.0  0.51182  0.30091  0.19494  1.0000
  H   H14       1.0  0.12501  0.33419  0.44526  1.0000
  H   H15       1.0  0.36418  0.16498  0.33385  1.0000
  C   C22       1.0  0.26224  0.24300  0.31520  1.0000
  C   C23       1.0  0.31760  0.24788  0.35040  1.0000
  C   C24       1.0  0.29820  0.25974  0.30358  1.0000
  C   C25       1.0  0.24260  0.25972  0.31346  1.0000
  C   C26       1.0  0.20648  0.24292  0.30407  1.0000
  C   C27       1.0  0.18790  0.25727  0.34290  1.0000
  N   N4        1.0  0.31348  0.28619  0.24536  1.0000
  N   N5        1.0  0.19015  0.21463  0.25245  1.0000
  H   H16       1.0  0.30021  0.29125  0.20395  1.0000
  H   H17       1.0  0.33766  0.29841  0.23554  1.0000
  H   H18       1.0  0.16598  0.20333  0.24225  1.0000
  H   H19       1.0  0.20273  0.20794  0.21325  1.0000
  H   H20       1.0  0.16900  0.29106  0.44964  1.0000
  H   H21       1.0  0.33715  0.21539  0.46760  1.0000
  C   C28       1.0  0.26305  0.02068  0.31036  1.0000
  C   C29       1.0  0.26419  0.07448  0.34252  1.0000
  C   C30       1.0  0.24813  0.04171  0.30237  1.0000
  C   C31       1.0  0.24452  0.48424  0.30789  1.0000
  C   C32       1.0  0.25991  0.46380  0.29456  1.0000
  C   C33       1.0  0.24514  0.43101  0.33402  1.0000
  N   N6        1.0  0.22046  0.03179  0.24924  1.0000
  N   N7        1.0  0.28696  0.47452  0.23866  1.0000
  H   H22       1.0  0.21337  0.51301  0.20801  1.0000
  H   H23       1.0  0.21050  0.04589  0.23911  1.0000
  H   H24       1.0  0.29692  0.46066  0.22493  1.0000
  H   H25       1.0  0.29342  0.99374  0.19938  1.0000
  H   H26       1.0  0.21166  0.37868  0.44228  1.0000
  H   H27       1.0  0.29943  0.12793  0.44586  1.0000
  C   C34       1.0  0.11548  0.26056  0.26716  1.0000
  N   N8        1.0  0.14459  0.25974  0.26560  1.0000
  H   H28       1.0  0.11240  0.27485  0.21954  1.0000
  C   C35       1.0  0.23914  0.35365  0.26426  1.0000
  N   N9        1.0  0.24019  0.38364  0.26073  1.0000
  H   H29       1.0  0.22347  0.33540  0.22020  1.0000
  C   C36       1.0  0.14875  0.38805  0.26175  1.0000
  N   N10       1.0  0.11918  0.35853  0.26023  1.0000
  H   H30       1.0  0.16641  0.39132  0.21481  1.0000
  C   C37       1.0  0.39113  0.25522  0.24186  1.0000
  N   N11       1.0  0.36145  0.25442  0.25487  1.0000
  H   H31       1.0  0.39421  0.24613  0.18217  1.0000
  C   C38       1.0  0.27062  0.15287  0.27849  1.0000
  N   N12       1.0  0.27030  0.12326  0.27377  1.0000
  H   H32       1.0  0.28658  0.17173  0.23626  1.0000
  C   C39       1.0  0.35790  0.10587  0.24945  1.0000
  N   N13       1.0  0.38616  0.13590  0.23403  1.0000
  H   H33       1.0  0.33959  0.09709  0.20122  1.0000
  C   C40       1.0  0.46537  0.25820  0.31206  1.0000
  C   C41       1.0  0.42990  0.24153  0.31340  1.0000
  C   C42       1.0  0.41156  0.20563  0.31258  1.0000
  H   H34       1.0  0.47757  0.28334  0.32667  1.0000
  N   N14       1.0  0.37776  0.18912  0.33172  1.0000
  N   N15       1.0  0.11622  0.31155  0.42321  1.0000
  H   H35       1.0  0.12301  0.29797  0.45731  1.0000
  H   H36       1.0  0.36620  0.20076  0.35108  1.0000
  C   C43       1.0  0.24683  0.20838  0.33932  1.0000
  C   C44       1.0  0.26546  0.19358  0.36981  1.0000
  C   C45       1.0  0.30018  0.21499  0.38964  1.0000
  H   H37       1.0  0.22129  0.19344  0.34208  1.0000
  N   N16       1.0  0.31501  0.20166  0.44257  1.0000
  C   C46       1.0  0.20601  0.29112  0.37493  1.0000
  C   C47       1.0  0.24089  0.31125  0.35616  1.0000
  C   C48       1.0  0.25873  0.29496  0.33135  1.0000
  N   N17       1.0  0.19103  0.30514  0.42414  1.0000
  H   H38       1.0  0.28432  0.30952  0.33347  1.0000
  H   H39       1.0  0.20489  0.32610  0.45574  1.0000
  H   H40       1.0  0.30127  0.18046  0.47367  1.0000
  C   C49       1.0  0.29824  0.03811  0.32984  1.0000
  C   C50       1.0  0.31610  0.07173  0.35979  1.0000
  C   C51       1.0  0.29760  0.08840  0.37712  1.0000
  H   H41       1.0  0.31146  0.02566  0.33222  1.0000
  N   N18       1.0  0.31222  0.11759  0.42579  1.0000
  C   C52       1.0  0.21186  0.41628  0.36939  1.0000
  C   C53       1.0  0.19228  0.43175  0.35238  1.0000
  C   C54       1.0  0.20933  0.46602  0.32794  1.0000
  N   N19       1.0  0.19795  0.38753  0.41951  1.0000
  H   H42       1.0  0.19553  0.47782  0.33209  1.0000
  H   H43       1.0  0.17736  0.38066  0.45273  1.0000
  H   H44       1.0  0.33348  0.12545  0.45629  1.0000
  C   C55       1.0  0.10152  0.23035  0.40679  1.0000
  C   C56       1.0  0.15288  0.24386  0.32882  1.0000
  N   N20       1.0  0.13137  0.23051  0.39952  1.0000
  H   H45       1.0  0.09821  0.23133  0.54769  1.0000
  C   C57       1.0  0.27315  0.37248  0.39788  1.0000
  C   C58       1.0  0.25437  0.34596  0.33605  1.0000
  C   C59       1.0  0.25798  0.40897  0.31970  1.0000
  N   N21       1.0  0.27301  0.40210  0.38876  1.0000
  C   C60       1.0  0.28884  0.36876  0.48038  1.0000
  H   H46       1.0  0.28786  0.34451  0.48410  1.0000
  H   H47       1.0  0.27593  0.37121  0.53885  1.0000
  H   H48       1.0  0.31526  0.38855  0.48262  1.0000
  C   C61       1.0  0.13166  0.40192  0.39995  1.0000
  C   C62       1.0  0.15727  0.41094  0.33418  1.0000
  N   N22       1.0  0.10234  0.37172  0.39282  1.0000
  C   C63       1.0  0.13627  0.42095  0.48373  1.0000
  H   H49       1.0  0.16010  0.44472  0.48535  1.0000
  H   H50       1.0  0.13553  0.40574  0.54086  1.0000
  H   H51       1.0  0.11591  0.42663  0.49044  1.0000
  C   C64       1.0  0.40476  0.27025  0.39703  1.0000
  C   C65       1.0  0.41312  0.26057  0.31470  1.0000
  C   C66       1.0  0.35260  0.26176  0.33481  1.0000
  N   N23       1.0  0.37465  0.26934  0.40369  1.0000
  C   C67       1.0  0.42301  0.27523  0.48250  1.0000
  H   H52       1.0  0.44683  0.27564  0.47412  1.0000
  H   H53       1.0  0.40735  0.25498  0.52897  1.0000
  H   H54       1.0  0.42847  0.29924  0.51197  1.0000
  C   C68       1.0  0.23455  0.13189  0.40794  1.0000
  C   C69       1.0  0.25372  0.15923  0.34867  1.0000
  C   C70       1.0  0.25195  0.09710  0.33004  1.0000
  N   N24       1.0  0.23549  0.10271  0.39783  1.0000
  C   C71       1.0  0.21698  0.13416  0.48839  1.0000
  H   H55       1.0  0.21739  0.15811  0.49299  1.0000
  H   H56       1.0  0.22886  0.13119  0.54835  1.0000
  H   H57       1.0  0.19069  0.11402  0.48666  1.0000
  C   C72       1.0  0.37699  0.10764  0.40053  1.0000
  C   C73       1.0  0.35077  0.09141  0.33628  1.0000
  C   C74       1.0  0.41072  0.15202  0.29633  1.0000
  N   N25       1.0  0.40485  0.13756  0.37889  1.0000
  C   C75       1.0  0.37467  0.09595  0.49396  1.0000
  H   H58       1.0  0.35152  0.07218  0.50643  1.0000
  H   H59       1.0  0.37564  0.11488  0.54012  1.0000
  H   H60       1.0  0.39593  0.09218  0.50791  1.0000
  C   C76       1.0  0.48410  0.74171  0.29376  1.0000
  C   C77       1.0  0.42908  0.68776  0.29428  1.0000
  C   C78       1.0  0.46450  0.70608  0.27577  1.0000
  N   N26       1.0  0.47835  0.69001  0.23045  1.0000
  H   H61       1.0  0.99952  0.70306  0.19867  1.0000
  H   H62       1.0  0.46482  0.66672  0.21118  1.0000
  H   H63       1.0  0.51181  0.80091  0.19494  1.0000
  H   H64       1.0  0.12502  0.83419  0.44526  1.0000
  H   H65       1.0  0.36418  0.66498  0.33385  1.0000
  C   C79       1.0  0.26224  0.74300  0.31520  1.0000
  C   C80       1.0  0.31760  0.74788  0.35040  1.0000
  C   C81       1.0  0.29820  0.75974  0.30358  1.0000
  C   C82       1.0  0.24260  0.75972  0.31346  1.0000
  C   C83       1.0  0.20648  0.74292  0.30407  1.0000
  C   C84       1.0  0.18790  0.75727  0.34290  1.0000
  N   N27       1.0  0.31348  0.78619  0.24536  1.0000
  N   N28       1.0  0.19015  0.71463  0.25245  1.0000
  H   H66       1.0  0.30021  0.79125  0.20396  1.0000
  H   H67       1.0  0.33766  0.79841  0.23554  1.0000
  H   H68       1.0  0.16598  0.70332  0.24225  1.0000
  H   H69       1.0  0.20273  0.70794  0.21325  1.0000
  H   H70       1.0  0.16901  0.79107  0.44964  1.0000
  H   H71       1.0  0.33715  0.71539  0.46760  1.0000
  C   C85       1.0  0.26305  0.52068  0.31036  1.0000
  C   C86       1.0  0.26419  0.57448  0.34252  1.0000
  C   C87       1.0  0.24813  0.54171  0.30237  1.0000
  C   C88       1.0  0.24452  0.98424  0.30789  1.0000
  C   C89       1.0  0.25991  0.96380  0.29456  1.0000
  C   C90       1.0  0.24514  0.93101  0.33402  1.0000
  N   N29       1.0  0.22045  0.53179  0.24924  1.0000
  N   N30       1.0  0.28696  0.97452  0.23866  1.0000
  H   H72       1.0  0.21337  0.01301  0.20801  1.0000
  H   H73       1.0  0.21050  0.54589  0.23911  1.0000
  H   H74       1.0  0.29692  0.96066  0.22493  1.0000
  H   H75       1.0  0.29342  0.49373  0.19938  1.0000
  H   H76       1.0  0.21166  0.87868  0.44228  1.0000
  H   H77       1.0  0.29943  0.62793  0.44586  1.0000
  C   C91       1.0  0.11547  0.76055  0.26716  1.0000
  N   N31       1.0  0.14459  0.75974  0.26560  1.0000
  H   H78       1.0  0.11240  0.77485  0.21954  1.0000
  C   C92       1.0  0.23914  0.85365  0.26426  1.0000
  N   N32       1.0  0.24019  0.88364  0.26073  1.0000
  H   H79       1.0  0.22347  0.83540  0.22020  1.0000
  C   C93       1.0  0.14875  0.88806  0.26175  1.0000
  N   N33       1.0  0.11918  0.85853  0.26023  1.0000
  H   H80       1.0  0.16641  0.89132  0.21481  1.0000
  C   C94       1.0  0.39112  0.75522  0.24186  1.0000
  N   N34       1.0  0.36145  0.75442  0.25487  1.0000
  H   H81       1.0  0.39421  0.74613  0.18217  1.0000
  C   C95       1.0  0.27062  0.65287  0.27849  1.0000
  N   N35       1.0  0.27030  0.62327  0.27377  1.0000
  H   H82       1.0  0.28658  0.67173  0.23626  1.0000
  C   C96       1.0  0.35790  0.60586  0.24945  1.0000
  N   N36       1.0  0.38616  0.63591  0.23403  1.0000
  H   H83       1.0  0.33959  0.59709  0.20122  1.0000
  C   C97       1.0  0.46536  0.75819  0.31206  1.0000
  C   C98       1.0  0.42990  0.74153  0.31340  1.0000
  C   C99       1.0  0.41156  0.70563  0.31258  1.0000
  H   H84       1.0  0.47757  0.78334  0.32667  1.0000
  N   N37       1.0  0.37775  0.68912  0.33172  1.0000
  N   N38       1.0  0.11622  0.81155  0.42321  1.0000
  H   H85       1.0  0.12301  0.79797  0.45731  1.0000
  H   H86       1.0  0.36620  0.70076  0.35108  1.0000
  C   C100      1.0  0.24683  0.70838  0.33932  1.0000
  C   C101      1.0  0.26546  0.69358  0.36981  1.0000
  C   C102      1.0  0.30018  0.71499  0.38964  1.0000
  H   H87       1.0  0.22129  0.69344  0.34208  1.0000
  N   N39       1.0  0.31501  0.70166  0.44257  1.0000
  C   C103      1.0  0.20601  0.79112  0.37494  1.0000
  C   C104      1.0  0.24089  0.81125  0.35616  1.0000
  C   C105      1.0  0.25873  0.79497  0.33135  1.0000
  N   N40       1.0  0.19103  0.80514  0.42414  1.0000
  H   H88       1.0  0.28432  0.80953  0.33347  1.0000
  H   H89       1.0  0.20489  0.82610  0.45575  1.0000
  H   H90       1.0  0.30127  0.68046  0.47367  1.0000
  C   C106      1.0  0.29824  0.53811  0.32984  1.0000
  C   C107      1.0  0.31610  0.57173  0.35979  1.0000
  C   C108      1.0  0.29761  0.58840  0.37712  1.0000
  H   H91       1.0  0.31147  0.52566  0.33222  1.0000
  N   N41       1.0  0.31222  0.61759  0.42579  1.0000
  C   C109      1.0  0.21186  0.91628  0.36939  1.0000
  C   C110      1.0  0.19228  0.93175  0.35239  1.0000
  C   C111      1.0  0.20933  0.96602  0.32794  1.0000
  N   N42       1.0  0.19795  0.88753  0.41951  1.0000
  H   H92       1.0  0.19553  0.97782  0.33209  1.0000
  H   H93       1.0  0.17736  0.88066  0.45273  1.0000
  H   H94       1.0  0.33348  0.62545  0.45629  1.0000
  C   C112      1.0  0.10152  0.73035  0.40679  1.0000
  C   C113      1.0  0.15288  0.74386  0.32882  1.0000
  N   N43       1.0  0.13137  0.73052  0.39953  1.0000
  H   H95       1.0  0.09821  0.73133  0.54769  1.0000
  C   C114      1.0  0.27315  0.87248  0.39788  1.0000
  C   C115      1.0  0.25437  0.84596  0.33605  1.0000
  C   C116      1.0  0.25798  0.90898  0.31970  1.0000
  N   N44       1.0  0.27302  0.90211  0.38876  1.0000
  C   C117      1.0  0.28883  0.86875  0.48038  1.0000
  H   H96       1.0  0.28786  0.84451  0.48410  1.0000
  H   H97       1.0  0.27593  0.87121  0.53885  1.0000
  H   H98       1.0  0.31526  0.88855  0.48262  1.0000
  C   C118      1.0  0.13166  0.90192  0.39995  1.0000
  C   C119      1.0  0.15727  0.91094  0.33418  1.0000
  N   N45       1.0  0.10234  0.87172  0.39282  1.0000
  C   C120      1.0  0.13627  0.92095  0.48373  1.0000
  H   H99       1.0  0.16010  0.94472  0.48535  1.0000
  H   H100      1.0  0.13553  0.90574  0.54086  1.0000
  H   H101      1.0  0.11591  0.92663  0.49044  1.0000
  C   C121      1.0  0.40476  0.77025  0.39703  1.0000
  C   C122      1.0  0.41312  0.76057  0.31470  1.0000
  C   C123      1.0  0.35260  0.76176  0.33481  1.0000
  N   N46       1.0  0.37465  0.76934  0.40369  1.0000
  C   C124      1.0  0.42301  0.77523  0.48250  1.0000
  H   H102      1.0  0.44683  0.77565  0.47412  1.0000
  H   H103      1.0  0.40735  0.75498  0.52897  1.0000
  H   H104      1.0  0.42847  0.79924  0.51197  1.0000
  C   C125      1.0  0.23455  0.63189  0.40794  1.0000
  C   C126      1.0  0.25372  0.65923  0.34867  1.0000
  C   C127      1.0  0.25195  0.59710  0.33004  1.0000
  N   N47       1.0  0.23549  0.60271  0.39783  1.0000
  C   C128      1.0  0.21698  0.63416  0.48839  1.0000
  H   H105      1.0  0.21739  0.65811  0.49299  1.0000
  H   H106      1.0  0.22886  0.63119  0.54835  1.0000
  H   H107      1.0  0.19069  0.61403  0.48666  1.0000
  C   C129      1.0  0.37699  0.60764  0.40053  1.0000
  C   C130      1.0  0.35077  0.59141  0.33628  1.0000
  C   C131      1.0  0.41072  0.65202  0.29633  1.0000
  N   N48       1.0  0.40485  0.63756  0.37889  1.0000
  C   C132      1.0  0.37467  0.59595  0.49396  1.0000
  H   H108      1.0  0.35152  0.57218  0.50643  1.0000
  H   H109      1.0  0.37564  0.61488  0.54012  1.0000
  H   H110      1.0  0.39594  0.59218  0.50791  1.0000
  C   C133      1.0  0.98410  0.24171  0.29376  1.0000
  C   C134      1.0  0.92908  0.18776  0.29428  1.0000
  C   C135      1.0  0.96450  0.20608  0.27577  1.0000
  C   C136      1.0  0.52040  0.26065  0.30336  1.0000
  C   C137      1.0  0.54068  0.29670  0.29270  1.0000
  C   C138      1.0  0.57279  0.31502  0.33606  1.0000
  N   N49       1.0  0.97835  0.19001  0.23046  1.0000
  N   N50       1.0  0.53042  0.31330  0.23622  1.0000
  H   H111      1.0  0.49952  0.20306  0.19867  1.0000
  H   H112      1.0  0.96482  0.16672  0.21118  1.0000
  H   H113      1.0  0.54383  0.33739  0.22550  1.0000
  H   H114      1.0  0.62501  0.33419  0.44526  1.0000
  H   H115      1.0  0.86418  0.16498  0.33385  1.0000
  C   C139      1.0  0.76224  0.24300  0.31520  1.0000
  C   C140      1.0  0.81760  0.24788  0.35040  1.0000
  C   C141      1.0  0.79820  0.25974  0.30358  1.0000
  C   C142      1.0  0.74260  0.25972  0.31346  1.0000
  C   C143      1.0  0.70648  0.24292  0.30407  1.0000
  C   C144      1.0  0.68790  0.25727  0.34290  1.0000
  N   N51       1.0  0.81348  0.28619  0.24536  1.0000
  N   N52       1.0  0.69015  0.21463  0.25245  1.0000
  H   H116      1.0  0.80021  0.29125  0.20395  1.0000
  H   H117      1.0  0.83766  0.29841  0.23554  1.0000
  H   H118      1.0  0.66598  0.20333  0.24225  1.0000
  H   H119      1.0  0.70273  0.20794  0.21325  1.0000
  H   H120      1.0  0.66901  0.29106  0.44964  1.0000
  H   H121      1.0  0.83715  0.21539  0.46760  1.0000
  C   C145      1.0  0.76305  0.02068  0.31036  1.0000
  C   C146      1.0  0.76419  0.07448  0.34252  1.0000
  C   C147      1.0  0.74813  0.04171  0.30237  1.0000
  C   C148      1.0  0.74452  0.48424  0.30789  1.0000
  C   C149      1.0  0.75991  0.46380  0.29456  1.0000
  C   C150      1.0  0.74514  0.43101  0.33402  1.0000
  N   N53       1.0  0.72045  0.03179  0.24924  1.0000
  N   N54       1.0  0.78696  0.47452  0.23866  1.0000
  H   H122      1.0  0.71337  0.51301  0.20801  1.0000
  H   H123      1.0  0.71050  0.04589  0.23911  1.0000
  H   H124      1.0  0.79692  0.46066  0.22493  1.0000
  H   H125      1.0  0.79342  0.99374  0.19938  1.0000
  H   H126      1.0  0.71166  0.37868  0.44228  1.0000
  H   H127      1.0  0.79943  0.12793  0.44586  1.0000
  C   C151      1.0  0.61547  0.26056  0.26716  1.0000
  N   N55       1.0  0.64459  0.25974  0.26560  1.0000
  H   H128      1.0  0.61240  0.27485  0.21954  1.0000
  C   C152      1.0  0.73914  0.35365  0.26426  1.0000
  N   N56       1.0  0.74019  0.38364  0.26073  1.0000
  H   H129      1.0  0.72347  0.33540  0.22020  1.0000
  C   C153      1.0  0.64875  0.38805  0.26175  1.0000
  N   N57       1.0  0.61918  0.35853  0.26023  1.0000
  H   H130      1.0  0.66641  0.39132  0.21481  1.0000
  C   C154      1.0  0.89112  0.25522  0.24186  1.0000
  N   N58       1.0  0.86145  0.25442  0.25487  1.0000
  H   H131      1.0  0.89421  0.24613  0.18217  1.0000
  C   C155      1.0  0.77062  0.15287  0.27849  1.0000
  N   N59       1.0  0.77030  0.12326  0.27377  1.0000
  H   H132      1.0  0.78658  0.17173  0.23626  1.0000
  C   C156      1.0  0.85790  0.10587  0.24945  1.0000
  N   N60       1.0  0.88616  0.13590  0.23403  1.0000
  H   H133      1.0  0.83958  0.09709  0.20122  1.0000
  C   C157      1.0  0.96537  0.25820  0.31206  1.0000
  C   C158      1.0  0.92990  0.24153  0.31340  1.0000
  C   C159      1.0  0.91156  0.20563  0.31258  1.0000
  H   H134      1.0  0.97757  0.28334  0.32667  1.0000
  N   N61       1.0  0.87775  0.18912  0.33172  1.0000
  C   C160      1.0  0.58751  0.29660  0.37281  1.0000
  C   C161      1.0  0.57216  0.26141  0.35771  1.0000
  C   C162      1.0  0.53833  0.24406  0.32965  1.0000
  N   N62       1.0  0.61622  0.31155  0.42321  1.0000
  H   H135      1.0  0.52648  0.21846  0.33497  1.0000
  H   H136      1.0  0.62301  0.29797  0.45731  1.0000
  H   H137      1.0  0.86620  0.20076  0.35108  1.0000
  C   C163      1.0  0.74683  0.20838  0.33932  1.0000
  C   C164      1.0  0.76546  0.19358  0.36981  1.0000
  C   C165      1.0  0.80018  0.21499  0.38964  1.0000
  H   H138      1.0  0.72129  0.19344  0.34208  1.0000
  N   N63       1.0  0.81501  0.20166  0.44257  1.0000
  C   C166      1.0  0.70601  0.29112  0.37493  1.0000
  C   C167      1.0  0.74089  0.31125  0.35616  1.0000
  C   C168      1.0  0.75873  0.29496  0.33135  1.0000
  N   N64       1.0  0.69103  0.30514  0.42414  1.0000
  H   H139      1.0  0.78432  0.30952  0.33347  1.0000
  H   H140      1.0  0.70489  0.32610  0.45574  1.0000
  H   H141      1.0  0.80127  0.18046  0.47367  1.0000
  C   C169      1.0  0.79824  0.03811  0.32984  1.0000
  C   C170      1.0  0.81610  0.07173  0.35979  1.0000
  C   C171      1.0  0.79761  0.08840  0.37712  1.0000
  H   H142      1.0  0.81146  0.02566  0.33222  1.0000
  N   N65       1.0  0.81222  0.11759  0.42579  1.0000
  C   C172      1.0  0.71186  0.41628  0.36939  1.0000
  C   C173      1.0  0.69228  0.43175  0.35238  1.0000
  C   C174      1.0  0.70933  0.46602  0.32794  1.0000
  N   N66       1.0  0.69795  0.38753  0.41951  1.0000
  H   H143      1.0  0.69553  0.47782  0.33209  1.0000
  H   H144      1.0  0.67736  0.38066  0.45273  1.0000
  H   H145      1.0  0.83348  0.12545  0.45629  1.0000
  C   C175      1.0  0.60152  0.23035  0.40679  1.0000
  C   C176      1.0  0.59300  0.24718  0.34059  1.0000
  C   C177      1.0  0.65288  0.24386  0.32882  1.0000
  N   N67       1.0  0.63137  0.23051  0.39952  1.0000
  C   C178      1.0  0.58266  0.21671  0.49119  1.0000
  H   H146      1.0  0.55918  0.21733  0.49285  1.0000
  H   H147      1.0  0.59821  0.23133  0.54769  1.0000
  H   H148      1.0  0.57646  0.19055  0.49898  1.0000
  C   C179      1.0  0.77315  0.37248  0.39788  1.0000
  C   C180      1.0  0.75437  0.34596  0.33605  1.0000
  C   C181      1.0  0.75798  0.40897  0.31970  1.0000
  N   N68       1.0  0.77301  0.40210  0.38876  1.0000
  C   C182      1.0  0.78884  0.36876  0.48038  1.0000
  H   H149      1.0  0.78786  0.34451  0.48410  1.0000
  H   H150      1.0  0.77593  0.37121  0.53885  1.0000
  H   H151      1.0  0.81526  0.38855  0.48262  1.0000
  C   C183      1.0  0.63166  0.40192  0.39995  1.0000
  C   C184      1.0  0.65727  0.41094  0.33418  1.0000
  C   C185      1.0  0.59478  0.35004  0.32278  1.0000
  N   N69       1.0  0.60234  0.37172  0.39282  1.0000
  C   C186      1.0  0.63627  0.42095  0.48373  1.0000
  H   H152      1.0  0.66010  0.44472  0.48535  1.0000
  H   H153      1.0  0.63553  0.40574  0.54086  1.0000
  H   H154      1.0  0.61591  0.42663  0.49044  1.0000
  C   C187      1.0  0.90476  0.27025  0.39703  1.0000
  C   C188      1.0  0.91312  0.26057  0.31470  1.0000
  C   C189      1.0  0.85260  0.26176  0.33481  1.0000
  N   N70       1.0  0.87465  0.26934  0.40369  1.0000
  C   C190      1.0  0.92301  0.27523  0.48250  1.0000
  H   H155      1.0  0.94683  0.27564  0.47412  1.0000
  H   H156      1.0  0.90734  0.25498  0.52897  1.0000
  H   H157      1.0  0.92848  0.29924  0.51197  1.0000
  C   C191      1.0  0.73455  0.13189  0.40794  1.0000
  C   C192      1.0  0.75372  0.15923  0.34867  1.0000
  C   C193      1.0  0.75195  0.09710  0.33004  1.0000
  N   N71       1.0  0.73549  0.10271  0.39783  1.0000
  C   C194      1.0  0.71698  0.13416  0.48839  1.0000
  H   H158      1.0  0.71739  0.15811  0.49299  1.0000
  H   H159      1.0  0.72886  0.13119  0.54835  1.0000
  H   H160      1.0  0.69069  0.11402  0.48666  1.0000
  C   C195      1.0  0.87699  0.10764  0.40053  1.0000
  C   C196      1.0  0.85077  0.09141  0.33628  1.0000
  C   C197      1.0  0.91071  0.15202  0.29633  1.0000
  N   N72       1.0  0.90485  0.13756  0.37889  1.0000
  C   C198      1.0  0.87467  0.09595  0.49396  1.0000
  H   H161      1.0  0.85152  0.07218  0.50643  1.0000
  H   H162      1.0  0.87564  0.11488  0.54012  1.0000
  H   H163      1.0  0.89593  0.09218  0.50791  1.0000
  C   C199      1.0  0.98410  0.74171  0.29376  1.0000
  C   C200      1.0  0.92908  0.68776  0.29428  1.0000
  C   C201      1.0  0.96450  0.70608  0.27577  1.0000
  C   C202      1.0  0.52040  0.76065  0.30336  1.0000
  C   C203      1.0  0.54068  0.79670  0.29270  1.0000
  C   C204      1.0  0.57279  0.81502  0.33606  1.0000
  N   N73       1.0  0.97835  0.69001  0.23045  1.0000
  N   N74       1.0  0.53042  0.81329  0.23622  1.0000
  H   H164      1.0  0.49952  0.70306  0.19867  1.0000
  H   H165      1.0  0.96482  0.66672  0.21118  1.0000
  H   H166      1.0  0.54383  0.83739  0.22550  1.0000
  H   H167      1.0  0.62501  0.83419  0.44526  1.0000
  H   H168      1.0  0.86418  0.66498  0.33385  1.0000
  C   C205      1.0  0.76224  0.74300  0.31520  1.0000
  C   C206      1.0  0.81760  0.74788  0.35040  1.0000
  C   C207      1.0  0.79820  0.75974  0.30358  1.0000
  C   C208      1.0  0.74260  0.75972  0.31346  1.0000
  C   C209      1.0  0.70648  0.74292  0.30407  1.0000
  C   C210      1.0  0.68790  0.75727  0.34290  1.0000
  N   N75       1.0  0.81348  0.78619  0.24536  1.0000
  N   N76       1.0  0.69015  0.71463  0.25245  1.0000
  H   H169      1.0  0.80021  0.79125  0.20396  1.0000
  H   H170      1.0  0.83766  0.79841  0.23554  1.0000
  H   H171      1.0  0.66598  0.70332  0.24225  1.0000
  H   H172      1.0  0.70273  0.70794  0.21325  1.0000
  H   H173      1.0  0.66900  0.79107  0.44964  1.0000
  H   H174      1.0  0.83715  0.71539  0.46760  1.0000
  C   C211      1.0  0.76305  0.52068  0.31036  1.0000
  C   C212      1.0  0.76419  0.57448  0.34252  1.0000
  C   C213      1.0  0.74813  0.54171  0.30237  1.0000
  C   C214      1.0  0.74452  0.98424  0.30789  1.0000
  C   C215      1.0  0.75991  0.96380  0.29456  1.0000
  C   C216      1.0  0.74514  0.93101  0.33402  1.0000
  N   N77       1.0  0.72045  0.53179  0.24924  1.0000
  N   N78       1.0  0.78696  0.97452  0.23866  1.0000
  H   H175      1.0  0.71337  0.01301  0.20801  1.0000
  H   H176      1.0  0.71050  0.54589  0.23911  1.0000
  H   H177      1.0  0.79692  0.96066  0.22493  1.0000
  H   H178      1.0  0.79342  0.49373  0.19938  1.0000
  H   H179      1.0  0.71166  0.87868  0.44228  1.0000
  H   H180      1.0  0.79943  0.62793  0.44586  1.0000
  C   C217      1.0  0.61547  0.76055  0.26716  1.0000
  N   N79       1.0  0.64459  0.75974  0.26560  1.0000
  H   H181      1.0  0.61240  0.77485  0.21954  1.0000
  C   C218      1.0  0.73914  0.85365  0.26426  1.0000
  N   N80       1.0  0.74019  0.88364  0.26073  1.0000
  H   H182      1.0  0.72347  0.83540  0.22020  1.0000
  C   C219      1.0  0.64875  0.88806  0.26175  1.0000
  N   N81       1.0  0.61918  0.85853  0.26023  1.0000
  H   H183      1.0  0.66641  0.89132  0.21481  1.0000
  C   C220      1.0  0.89112  0.75522  0.24186  1.0000
  N   N82       1.0  0.86145  0.75442  0.25487  1.0000
  H   H184      1.0  0.89421  0.74613  0.18217  1.0000
  C   C221      1.0  0.77062  0.65287  0.27849  1.0000
  N   N83       1.0  0.77030  0.62327  0.27377  1.0000
  H   H185      1.0  0.78658  0.67173  0.23626  1.0000
  C   C222      1.0  0.85790  0.60586  0.24945  1.0000
  N   N84       1.0  0.88616  0.63591  0.23403  1.0000
  H   H186      1.0  0.83958  0.59709  0.20122  1.0000
  C   C223      1.0  0.96536  0.75819  0.31206  1.0000
  C   C224      1.0  0.92990  0.74153  0.31340  1.0000
  C   C225      1.0  0.91156  0.70563  0.31258  1.0000
  H   H187      1.0  0.97757  0.78334  0.32667  1.0000
  N   N85       1.0  0.87775  0.68912  0.33172  1.0000
  C   C226      1.0  0.58751  0.79660  0.37281  1.0000
  C   C227      1.0  0.57216  0.76141  0.35771  1.0000
  C   C228      1.0  0.53833  0.74406  0.32965  1.0000
  N   N86       1.0  0.61622  0.81155  0.42321  1.0000
  H   H188      1.0  0.52648  0.71846  0.33497  1.0000
  H   H189      1.0  0.62301  0.79797  0.45731  1.0000
  H   H190      1.0  0.86620  0.70076  0.35108  1.0000
  C   C229      1.0  0.74683  0.70838  0.33932  1.0000
  C   C230      1.0  0.76546  0.69358  0.36981  1.0000
  C   C231      1.0  0.80018  0.71499  0.38964  1.0000
  H   H191      1.0  0.72129  0.69344  0.34208  1.0000
  N   N87       1.0  0.81501  0.70166  0.44257  1.0000
  C   C232      1.0  0.70601  0.79112  0.37494  1.0000
  C   C233      1.0  0.74089  0.81125  0.35616  1.0000
  C   C234      1.0  0.75873  0.79497  0.33135  1.0000
  N   N88       1.0  0.69103  0.80514  0.42414  1.0000
  H   H192      1.0  0.78432  0.80953  0.33347  1.0000
  H   H193      1.0  0.70489  0.82610  0.45575  1.0000
  H   H194      1.0  0.80127  0.68046  0.47367  1.0000
  C   C235      1.0  0.79824  0.53811  0.32984  1.0000
  C   C236      1.0  0.81610  0.57173  0.35979  1.0000
  C   C237      1.0  0.79761  0.58840  0.37712  1.0000
  H   H195      1.0  0.81146  0.52566  0.33222  1.0000
  N   N89       1.0  0.81222  0.61759  0.42579  1.0000
  C   C238      1.0  0.71186  0.91628  0.36939  1.0000
  C   C239      1.0  0.69228  0.93175  0.35239  1.0000
  C   C240      1.0  0.70933  0.96602  0.32794  1.0000
  N   N90       1.0  0.69795  0.88753  0.41951  1.0000
  H   H196      1.0  0.69553  0.97782  0.33209  1.0000
  H   H197      1.0  0.67736  0.88066  0.45273  1.0000
  H   H198      1.0  0.83348  0.62545  0.45629  1.0000
  C   C241      1.0  0.60152  0.73035  0.40679  1.0000
  C   C242      1.0  0.59300  0.74718  0.34059  1.0000
  C   C243      1.0  0.65287  0.74386  0.32882  1.0000
  N   N91       1.0  0.63137  0.73052  0.39953  1.0000
  C   C244      1.0  0.58266  0.71672  0.49119  1.0000
  H   H199      1.0  0.55918  0.71733  0.49285  1.0000
  H   H200      1.0  0.59821  0.73133  0.54769  1.0000
  H   H201      1.0  0.57647  0.69055  0.49898  1.0000
  C   C245      1.0  0.77315  0.87248  0.39788  1.0000
  C   C246      1.0  0.75437  0.84596  0.33605  1.0000
  C   C247      1.0  0.75798  0.90898  0.31970  1.0000
  N   N92       1.0  0.77302  0.90211  0.38876  1.0000
  C   C248      1.0  0.78883  0.86875  0.48038  1.0000
  H   H202      1.0  0.78786  0.84451  0.48410  1.0000
  H   H203      1.0  0.77593  0.87121  0.53885  1.0000
  H   H204      1.0  0.81526  0.88855  0.48262  1.0000
  C   C249      1.0  0.63166  0.90192  0.39995  1.0000
  C   C250      1.0  0.65727  0.91094  0.33418  1.0000
  C   C251      1.0  0.59478  0.85004  0.32278  1.0000
  N   N93       1.0  0.60234  0.87172  0.39282  1.0000
  C   C252      1.0  0.63627  0.92095  0.48373  1.0000
  H   H205      1.0  0.66010  0.94472  0.48535  1.0000
  H   H206      1.0  0.63553  0.90574  0.54086  1.0000
  H   H207      1.0  0.61591  0.92663  0.49044  1.0000
  C   C253      1.0  0.90476  0.77025  0.39703  1.0000
  C   C254      1.0  0.91312  0.76057  0.31470  1.0000
  C   C255      1.0  0.85260  0.76176  0.33481  1.0000
  N   N94       1.0  0.87465  0.76934  0.40369  1.0000
  C   C256      1.0  0.92301  0.77523  0.48250  1.0000
  H   H208      1.0  0.94683  0.77565  0.47412  1.0000
  H   H209      1.0  0.90734  0.75498  0.52897  1.0000
  H   H210      1.0  0.92847  0.79924  0.51197  1.0000
  C   C257      1.0  0.73455  0.63189  0.40794  1.0000
  C   C258      1.0  0.75372  0.65923  0.34867  1.0000
  C   C259      1.0  0.75195  0.59710  0.33004  1.0000
  N   N95       1.0  0.73549  0.60271  0.39783  1.0000
  C   C260      1.0  0.71698  0.63416  0.48839  1.0000
  H   H211      1.0  0.71739  0.65811  0.49299  1.0000
  H   H212      1.0  0.72886  0.63119  0.54835  1.0000
  H   H213      1.0  0.69069  0.61403  0.48666  1.0000
  C   C261      1.0  0.87699  0.60764  0.40053  1.0000
  C   C262      1.0  0.85077  0.59141  0.33628  1.0000
  C   C263      1.0  0.91072  0.65202  0.29633  1.0000
  N   N96       1.0  0.90485  0.63756  0.37889  1.0000
  C   C264      1.0  0.87467  0.59595  0.49396  1.0000
  H   H214      1.0  0.85152  0.57218  0.50643  1.0000
  H   H215      1.0  0.87564  0.61488  0.54012  1.0000
  H   H216      1.0  0.89593  0.59218  0.50791  1.0000
