data_image0
_chemical_formula_structural       C5NCONH2C5NCONH2C5NCONH2C5NCONH2C2H2C2H2C2H2C2H2C2H2C2H2C2H2C2H2C5NCONH2C5NCONH2C5NCONH2C5NCONH2C5NCONH2C5NCONH2C5NCONH2C5NCONH2C2H2C2H2C2H2C2H2C2H2C2H2C2H2C2H2C2H2C2H2CNCNCNCNCNCNCNCNCNCNCNCNCNCNCNCNCNCNCNCNCNCNCNCNCNCNCNCNCNCNCNCNCNCNCNCNCNCNCNCNCNCNCNCNCNCNCNCNCNCNCNCNCNCNCNCNCNCNCNCNC2H2C2H2C2H2C2H2C5NCONH2C5NCONH2C5NCONH2C5NCONH2C5NCONH2C5NCONH2C5NCONH2C5NCONH2C2H2C2H2C2H2C2H2C2H2C2H2C2H2C2H2C5NCONH2C5NCONH2C5NCONH2C5NCONH2C5NCONH2C5NCONH2C5NCONH2C5NCONH2C5NCONH2C5NCONH2
_chemical_formula_sum              "C300 N120 O30 H120"
_cell_length_a       43.6403
_cell_length_b       43.6403
_cell_length_c       14.7807
_cell_angle_alpha    90
_cell_angle_beta     90
_cell_angle_gamma    90

_space_group_name_H-M_alt    "P 1"
_space_group_IT_number       1

loop_
  _space_group_symop_operation_xyz
  'x, y, z'

loop_
  _atom_site_type_symbol
  _atom_site_label
  _atom_site_symmetry_multiplicity
  _atom_site_fract_x
  _atom_site_fract_y
  _atom_site_fract_z
  _atom_site_occupancy
  C   C1        1.0  0.37861  0.05833  0.33939  1.0000
  C   C2        1.0  0.36309  0.05557  0.25505  1.0000
  C   C3        1.0  0.33128  0.04741  0.25374  1.0000
  C   C4        1.0  0.31561  0.04163  0.33671  1.0000
  C   C5        1.0  0.31720  0.04572  0.16718  1.0000
  N   N1        1.0  0.33348  0.05117  0.09104  1.0000
  C   C6        1.0  0.36348  0.05850  0.09380  1.0000
  O   O1        1.0  0.28738  0.03877  0.15378  1.0000
  N   N2        1.0  0.37797  0.06075  0.17461  1.0000
  H   H1        1.0  0.37496  0.06243  0.03460  1.0000
  H   H2        1.0  0.39960  0.06619  0.17303  1.0000
  C   C7        1.0  0.63634  0.95645  0.33899  1.0000
  C   C8        1.0  0.65186  0.95928  0.25469  1.0000
  C   C9        1.0  0.68367  0.96746  0.25348  1.0000
  C   C10       1.0  0.69932  0.97320  0.33651  1.0000
  C   C11       1.0  0.69776  0.96921  0.16696  1.0000
  N   N3        1.0  0.68150  0.96379  0.09076  1.0000
  C   C12       1.0  0.65150  0.95645  0.09344  1.0000
  O   O2        1.0  0.72758  0.97618  0.15365  1.0000
  N   N4        1.0  0.63700  0.95414  0.17421  1.0000
  H   H3        1.0  0.64004  0.95252  0.03419  1.0000
  H   H4        1.0  0.61538  0.94867  0.17255  1.0000
  C   C13       1.0  0.95653  0.37861  0.33939  1.0000
  C   C14       1.0  0.95928  0.36310  0.25505  1.0000
  C   C15       1.0  0.96743  0.33128  0.25375  1.0000
  C   C16       1.0  0.97319  0.31560  0.33673  1.0000
  C   C17       1.0  0.96911  0.31719  0.16719  1.0000
  N   N5        1.0  0.96368  0.33348  0.09105  1.0000
  C   C18       1.0  0.95636  0.36349  0.09381  1.0000
  O   O3        1.0  0.97605  0.28737  0.15379  1.0000
  N   N6        1.0  0.95411  0.37798  0.17462  1.0000
  H   H5        1.0  0.95243  0.37497  0.03460  1.0000
  H   H6        1.0  0.94868  0.39960  0.17303  1.0000
  C   C19       1.0  0.05842  0.63633  0.33897  1.0000
  C   C20       1.0  0.05558  0.65185  0.25466  1.0000
  C   C21       1.0  0.04740  0.68366  0.25344  1.0000
  C   C22       1.0  0.04169  0.69932  0.33647  1.0000
  C   C23       1.0  0.04566  0.69775  0.16691  1.0000
  N   N7        1.0  0.05106  0.68149  0.09072  1.0000
  C   C24       1.0  0.05839  0.65148  0.09340  1.0000
  O   O4        1.0  0.03871  0.72757  0.15359  1.0000
  N   N8        1.0  0.06070  0.63698  0.17419  1.0000
  H   H7        1.0  0.06230  0.64001  0.03417  1.0000
  H   H8        1.0  0.06616  0.61536  0.17254  1.0000
  C   C25       1.0  0.18353  0.54487  0.27570  1.0000
  C   C26       1.0  0.15247  0.55307  0.27381  1.0000
  H   H9        1.0  0.14182  0.55533  0.21237  1.0000
  H   H10       1.0  0.19466  0.54161  0.21537  1.0000
  C   C27       1.0  0.83140  0.47007  0.27568  1.0000
  C   C28       1.0  0.86247  0.46187  0.27390  1.0000
  H   H11       1.0  0.87316  0.45966  0.21250  1.0000
  H   H12       1.0  0.82031  0.47334  0.21531  1.0000
  C   C29       1.0  0.54488  0.83131  0.27572  1.0000
  C   C30       1.0  0.55309  0.86238  0.27382  1.0000
  H   H13       1.0  0.55538  0.87302  0.21238  1.0000
  H   H14       1.0  0.54165  0.82019  0.21537  1.0000
  C   C31       1.0  0.47008  0.18345  0.27572  1.0000
  C   C32       1.0  0.46187  0.15239  0.27394  1.0000
  H   H15       1.0  0.45964  0.14170  0.21253  1.0000
  H   H16       1.0  0.47334  0.19455  0.21535  1.0000
  C   C33       1.0  0.20693  0.09798  0.27620  1.0000
  C   C34       1.0  0.19491  0.12792  0.27572  1.0000
  H   H17       1.0  0.18974  0.13780  0.21471  1.0000
  H   H18       1.0  0.21052  0.08734  0.21529  1.0000
  C   C35       1.0  0.80799  0.91687  0.27620  1.0000
  C   C36       1.0  0.81999  0.88693  0.27574  1.0000
  H   H19       1.0  0.82518  0.87705  0.21475  1.0000
  H   H20       1.0  0.80444  0.92752  0.21529  1.0000
  C   C37       1.0  0.91689  0.20691  0.27625  1.0000
  C   C38       1.0  0.88696  0.19488  0.27577  1.0000
  H   H21       1.0  0.87708  0.18971  0.21477  1.0000
  H   H22       1.0  0.92754  0.21048  0.21535  1.0000
  C   C39       1.0  0.09796  0.80801  0.27624  1.0000
  C   C40       1.0  0.12791  0.81999  0.27577  1.0000
  H   H23       1.0  0.13778  0.82520  0.21479  1.0000
  H   H24       1.0  0.08730  0.80446  0.21535  1.0000
  C   C41       1.0  0.32333  0.64487  0.33833  1.0000
  C   C42       1.0  0.31516  0.63046  0.25516  1.0000
  C   C43       1.0  0.30302  0.59982  0.25508  1.0000
  C   C44       1.0  0.29934  0.58342  0.33803  1.0000
  C   C45       1.0  0.29501  0.58743  0.16933  1.0000
  N   N9        1.0  0.29902  0.60391  0.09280  1.0000
  C   C46       1.0  0.31046  0.63262  0.09439  1.0000
  O   O5        1.0  0.28395  0.55879  0.15691  1.0000
  N   N10       1.0  0.31835  0.64562  0.17431  1.0000
  H   H25       1.0  0.31312  0.64427  0.03486  1.0000
  H   H26       1.0  0.32659  0.66633  0.17176  1.0000
  C   C47       1.0  0.69154  0.36996  0.33832  1.0000
  C   C48       1.0  0.69970  0.38437  0.25513  1.0000
  C   C49       1.0  0.71187  0.41500  0.25502  1.0000
  C   C50       1.0  0.71557  0.43137  0.33799  1.0000
  C   C51       1.0  0.71987  0.42738  0.16925  1.0000
  N   N11       1.0  0.71583  0.41090  0.09273  1.0000
  C   C52       1.0  0.70437  0.38221  0.09434  1.0000
  O   O6        1.0  0.73096  0.45601  0.15682  1.0000
  N   N12       1.0  0.69649  0.36921  0.17429  1.0000
  H   H27       1.0  0.70169  0.37055  0.03483  1.0000
  H   H28       1.0  0.68824  0.34850  0.17175  1.0000
  C   C53       1.0  0.64488  0.69151  0.33832  1.0000
  C   C54       1.0  0.63048  0.69969  0.25514  1.0000
  C   C55       1.0  0.59984  0.71184  0.25505  1.0000
  C   C56       1.0  0.58346  0.71554  0.33802  1.0000
  C   C57       1.0  0.58745  0.71985  0.16929  1.0000
  N   N13       1.0  0.60394  0.71583  0.09276  1.0000
  C   C58       1.0  0.63264  0.70438  0.09437  1.0000
  O   O7        1.0  0.55882  0.73092  0.15685  1.0000
  N   N14       1.0  0.64563  0.69649  0.17430  1.0000
  H   H29       1.0  0.64429  0.70170  0.03484  1.0000
  H   H30       1.0  0.66634  0.68824  0.17175  1.0000
  C   C59       1.0  0.36997  0.32329  0.33827  1.0000
  C   C60       1.0  0.38437  0.31513  0.25507  1.0000
  C   C61       1.0  0.41500  0.30299  0.25494  1.0000
  C   C62       1.0  0.43142  0.29929  0.33785  1.0000
  C   C63       1.0  0.42738  0.29498  0.16917  1.0000
  N   N15       1.0  0.41089  0.29901  0.09266  1.0000
  C   C64       1.0  0.38219  0.31046  0.09429  1.0000
  O   O8        1.0  0.45602  0.28392  0.15672  1.0000
  N   N16       1.0  0.36920  0.31834  0.17425  1.0000
  H   H31       1.0  0.37053  0.31313  0.03478  1.0000
  H   H32       1.0  0.34849  0.32659  0.17172  1.0000
  C   C65       1.0  0.21858  0.90614  0.34090  1.0000
  C   C66       1.0  0.22209  0.92193  0.25705  1.0000
  C   C67       1.0  0.22813  0.95435  0.25598  1.0000
  C   C68       1.0  0.23080  0.97109  0.33871  1.0000
  C   C69       1.0  0.23098  0.96818  0.16935  1.0000
  N   N17       1.0  0.22841  0.95130  0.09303  1.0000
  C   C70       1.0  0.22320  0.92086  0.09560  1.0000
  O   O9        1.0  0.23501  0.99854  0.15603  1.0000
  N   N18       1.0  0.21997  0.90651  0.17634  1.0000
  H   H33       1.0  0.22143  0.90896  0.03622  1.0000
  H   H34       1.0  0.21604  0.88456  0.17446  1.0000
  C   C71       1.0  0.79631  0.10870  0.34088  1.0000
  C   C72       1.0  0.79279  0.09292  0.25702  1.0000
  C   C73       1.0  0.78677  0.06050  0.25595  1.0000
  C   C74       1.0  0.78412  0.04375  0.33866  1.0000
  C   C75       1.0  0.78392  0.04668  0.16931  1.0000
  N   N19       1.0  0.78648  0.06356  0.09300  1.0000
  C   C76       1.0  0.79165  0.09401  0.09558  1.0000
  O   O10       1.0  0.77997  0.01631  0.15597  1.0000
  N   N20       1.0  0.79489  0.10835  0.17632  1.0000
  H   H35       1.0  0.79343  0.10591  0.03620  1.0000
  H   H36       1.0  0.79881  0.13031  0.17446  1.0000
  C   C77       1.0  0.10869  0.21855  0.34088  1.0000
  C   C78       1.0  0.09291  0.22209  0.25702  1.0000
  C   C79       1.0  0.06049  0.22814  0.25594  1.0000
  C   C80       1.0  0.04376  0.23081  0.33867  1.0000
  C   C81       1.0  0.04667  0.23100  0.16930  1.0000
  N   N21       1.0  0.06355  0.22843  0.09299  1.0000
  C   C82       1.0  0.09399  0.22321  0.09558  1.0000
  O   O11       1.0  0.01631  0.23502  0.15597  1.0000
  N   N22       1.0  0.10834  0.21996  0.17631  1.0000
  H   H37       1.0  0.10589  0.22142  0.03619  1.0000
  H   H38       1.0  0.13028  0.21602  0.17444  1.0000
  C   C83       1.0  0.90615  0.79629  0.34089  1.0000
  C   C84       1.0  0.92193  0.79276  0.25702  1.0000
  C   C85       1.0  0.95435  0.78674  0.25594  1.0000
  C   C86       1.0  0.97109  0.78407  0.33868  1.0000
  C   C87       1.0  0.96818  0.78390  0.16931  1.0000
  N   N23       1.0  0.95130  0.78647  0.09300  1.0000
  C   C88       1.0  0.92085  0.79165  0.09558  1.0000
  O   O12       1.0  0.99855  0.77993  0.15597  1.0000
  N   N24       1.0  0.90650  0.79488  0.17632  1.0000
  H   H39       1.0  0.90895  0.79343  0.03620  1.0000
  H   H40       1.0  0.88455  0.79880  0.17446  1.0000
  C   C89       1.0  0.28803  0.45509  0.27471  1.0000
  C   C90       1.0  0.29435  0.42344  0.27319  1.0000
  H   H41       1.0  0.29689  0.41285  0.21177  1.0000
  H   H42       1.0  0.28575  0.46631  0.21418  1.0000
  C   C91       1.0  0.72682  0.55973  0.27465  1.0000
  C   C92       1.0  0.72050  0.59138  0.27315  1.0000
  H   H43       1.0  0.71798  0.60197  0.21173  1.0000
  H   H44       1.0  0.72912  0.54851  0.21413  1.0000
  C   C93       1.0  0.45513  0.72679  0.27475  1.0000
  C   C94       1.0  0.42348  0.72047  0.27321  1.0000
  H   H45       1.0  0.41289  0.71796  0.21179  1.0000
  H   H46       1.0  0.46635  0.72909  0.21423  1.0000
  C   C95       1.0  0.55975  0.28801  0.27469  1.0000
  C   C96       1.0  0.59140  0.29432  0.27317  1.0000
  H   H47       1.0  0.60200  0.29680  0.21175  1.0000
  H   H48       1.0  0.54854  0.28568  0.21416  1.0000
  C   C97       1.0  0.22596  0.26565  0.27430  1.0000
  C   C98       1.0  0.24884  0.28842  0.27308  1.0000
  H   H49       1.0  0.25640  0.29633  0.21175  1.0000
  H   H50       1.0  0.21773  0.25778  0.21366  1.0000
  C   C99       1.0  0.78889  0.74917  0.27428  1.0000
  C   C100      1.0  0.76601  0.72640  0.27306  1.0000
  H   H51       1.0  0.75846  0.71849  0.21171  1.0000
  H   H52       1.0  0.79712  0.75704  0.21366  1.0000
  C   C101      1.0  0.74920  0.22596  0.27429  1.0000
  C   C102      1.0  0.72642  0.24884  0.27306  1.0000
  H   H53       1.0  0.71851  0.25639  0.21173  1.0000
  H   H54       1.0  0.75707  0.21774  0.21366  1.0000
  C   C103      1.0  0.26567  0.78888  0.27430  1.0000
  C   C104      1.0  0.28844  0.76601  0.27306  1.0000
  H   H55       1.0  0.29636  0.75847  0.21173  1.0000
  H   H56       1.0  0.25781  0.79712  0.21367  1.0000
  C   C105      1.0  0.49608  0.01894  0.27455  1.0000
  C   C106      1.0  0.51882  0.99630  0.27375  1.0000
  H   H57       1.0  0.52676  0.98852  0.21266  1.0000
  H   H58       1.0  0.48810  0.02706  0.21387  1.0000
  C   C107      1.0  0.99591  0.49609  0.27456  1.0000
  C   C108      1.0  0.01854  0.51883  0.27376  1.0000
  H   H59       1.0  0.02633  0.52677  0.21267  1.0000
  H   H60       1.0  0.98779  0.48811  0.21387  1.0000
  C   C109      1.0  0.23356  0.05617  0.35028  1.0000
  N   N25       1.0  0.22217  0.02692  0.34861  1.0000
  C   C110      1.0  0.24133  0.00207  0.34389  1.0000
  N   N26       1.0  0.27211  0.00710  0.34025  1.0000
  C   C111      1.0  0.28381  0.03594  0.34234  1.0000
  N   N27       1.0  0.26438  0.06009  0.34728  1.0000
  C   C112      1.0  0.78136  0.95867  0.35027  1.0000
  N   N28       1.0  0.79275  0.98792  0.34860  1.0000
  C   C113      1.0  0.77359  0.01277  0.34382  1.0000
  N   N29       1.0  0.74281  0.00774  0.34012  1.0000
  C   C114      1.0  0.73110  0.97890  0.34223  1.0000
  N   N30       1.0  0.75053  0.95475  0.34721  1.0000
  C   C115      1.0  0.95867  0.23355  0.35039  1.0000
  N   N31       1.0  0.98793  0.22216  0.34863  1.0000
  C   C116      1.0  0.01277  0.24133  0.34382  1.0000
  N   N32       1.0  0.00774  0.27211  0.34020  1.0000
  C   C117      1.0  0.97890  0.28381  0.34234  1.0000
  N   N33       1.0  0.95475  0.26438  0.34734  1.0000
  C   C118      1.0  0.05618  0.78137  0.35035  1.0000
  N   N34       1.0  0.02692  0.79275  0.34865  1.0000
  C   C119      1.0  0.00208  0.77357  0.34383  1.0000
  N   N35       1.0  0.00712  0.74279  0.34008  1.0000
  C   C120      1.0  0.03597  0.73110  0.34216  1.0000
  N   N36       1.0  0.06011  0.75055  0.34721  1.0000
  C   C121      1.0  0.28139  0.55624  0.34546  1.0000
  N   N37       1.0  0.29276  0.52698  0.34717  1.0000
  C   C122      1.0  0.27358  0.50214  0.35204  1.0000
  N   N38       1.0  0.24280  0.50719  0.35562  1.0000
  C   C123      1.0  0.23112  0.53605  0.35346  1.0000
  N   N39       1.0  0.25057  0.56017  0.34841  1.0000
  C   C124      1.0  0.73350  0.45857  0.34537  1.0000
  N   N40       1.0  0.72211  0.48783  0.34712  1.0000
  C   C125      1.0  0.74128  0.51267  0.35198  1.0000
  N   N41       1.0  0.77206  0.50765  0.35550  1.0000
  C   C126      1.0  0.78376  0.47880  0.35328  1.0000
  N   N42       1.0  0.76433  0.45466  0.34828  1.0000
  C   C127      1.0  0.55626  0.73347  0.34538  1.0000
  N   N43       1.0  0.52701  0.72208  0.34717  1.0000
  C   C128      1.0  0.50217  0.74125  0.35211  1.0000
  N   N44       1.0  0.50720  0.77204  0.35566  1.0000
  C   C129      1.0  0.53605  0.78373  0.35345  1.0000
  N   N45       1.0  0.56019  0.76430  0.34837  1.0000
  C   C130      1.0  0.45860  0.28134  0.34529  1.0000
  N   N46       1.0  0.48785  0.29273  0.34705  1.0000
  C   C131      1.0  0.51270  0.27358  0.35194  1.0000
  N   N47       1.0  0.50767  0.24279  0.35552  1.0000
  C   C132      1.0  0.47883  0.23109  0.35332  1.0000
  N   N48       1.0  0.45469  0.25051  0.34825  1.0000
  C   C133      1.0  0.18132  0.17579  0.35092  1.0000
  N   N49       1.0  0.15087  0.18263  0.34774  1.0000
  C   C134      1.0  0.14075  0.21219  0.34645  1.0000
  N   N50       1.0  0.16195  0.23521  0.34772  1.0000
  C   C135      1.0  0.19265  0.22921  0.35104  1.0000
  N   N51       1.0  0.20183  0.19935  0.35357  1.0000
  C   C136      1.0  0.83353  0.83904  0.35095  1.0000
  N   N52       1.0  0.86397  0.83220  0.34776  1.0000
  C   C137      1.0  0.87409  0.80264  0.34646  1.0000
  N   N53       1.0  0.85289  0.77962  0.34773  1.0000
  C   C138      1.0  0.82219  0.78562  0.35106  1.0000
  N   N54       1.0  0.81301  0.81548  0.35359  1.0000
  C   C139      1.0  0.83907  0.18133  0.35096  1.0000
  N   N55       1.0  0.83222  0.15088  0.34776  1.0000
  C   C140      1.0  0.80267  0.14076  0.34646  1.0000
  N   N56       1.0  0.77965  0.16197  0.34773  1.0000
  C   C141      1.0  0.78565  0.19266  0.35106  1.0000
  N   N57       1.0  0.81551  0.20185  0.35360  1.0000
  C   C142      1.0  0.17580  0.83353  0.35097  1.0000
  N   N58       1.0  0.18266  0.86398  0.34777  1.0000
  C   C143      1.0  0.21221  0.87409  0.34647  1.0000
  N   N59       1.0  0.23523  0.85288  0.34775  1.0000
  C   C144      1.0  0.22922  0.82218  0.35108  1.0000
  N   N60       1.0  0.19936  0.81301  0.35362  1.0000
  C   C145      1.0  0.33359  0.67585  0.34353  1.0000
  N   N61       1.0  0.36406  0.68268  0.34501  1.0000
  C   C146      1.0  0.37418  0.71222  0.34779  1.0000
  N   N62       1.0  0.35295  0.73521  0.35043  1.0000
  C   C147      1.0  0.32225  0.72923  0.34788  1.0000
  N   N63       1.0  0.31304  0.69939  0.34483  1.0000
  C   C148      1.0  0.68127  0.33898  0.34353  1.0000
  N   N64       1.0  0.65081  0.33215  0.34501  1.0000
  C   C149      1.0  0.64068  0.30261  0.34779  1.0000
  N   N65       1.0  0.66191  0.27962  0.35043  1.0000
  C   C150      1.0  0.69261  0.28560  0.34790  1.0000
  N   N66       1.0  0.70182  0.31544  0.34484  1.0000
  C   C151      1.0  0.67586  0.68125  0.34353  1.0000
  N   N67       1.0  0.68269  0.65078  0.34500  1.0000
  C   C152      1.0  0.71223  0.64066  0.34776  1.0000
  N   N68       1.0  0.73522  0.66189  0.35041  1.0000
  C   C153      1.0  0.72924  0.69259  0.34788  1.0000
  N   N69       1.0  0.69940  0.70180  0.34483  1.0000
  C   C154      1.0  0.33899  0.33355  0.34352  1.0000
  N   N70       1.0  0.33216  0.36402  0.34499  1.0000
  C   C155      1.0  0.30263  0.37415  0.34780  1.0000
  N   N71       1.0  0.27963  0.35292  0.35047  1.0000
  C   C156      1.0  0.28561  0.32222  0.34795  1.0000
  N   N72       1.0  0.31545  0.31301  0.34485  1.0000
  C   C157      1.0  0.44788  0.10522  0.34865  1.0000
  N   N73       1.0  0.46974  0.08314  0.35238  1.0000
  C   C158      1.0  0.46177  0.05307  0.35123  1.0000
  N   N74       1.0  0.43174  0.04506  0.34791  1.0000
  C   C159      1.0  0.40966  0.06695  0.34539  1.0000
  N   N75       1.0  0.41783  0.09701  0.34575  1.0000
  C   C160      1.0  0.56706  0.90958  0.34836  1.0000
  N   N76       1.0  0.54519  0.93167  0.35154  1.0000
  C   C161      1.0  0.55316  0.96172  0.34976  1.0000
  N   N77       1.0  0.58320  0.96972  0.34680  1.0000
  C   C162      1.0  0.60528  0.94783  0.34487  1.0000
  N   N78       1.0  0.59710  0.91776  0.34557  1.0000
  C   C163      1.0  0.90963  0.44787  0.34862  1.0000
  N   N79       1.0  0.93171  0.46974  0.35237  1.0000
  C   C164      1.0  0.96178  0.46178  0.35123  1.0000
  N   N80       1.0  0.96979  0.43175  0.34793  1.0000
  C   C165      1.0  0.94791  0.40967  0.34539  1.0000
  N   N81       1.0  0.91784  0.41783  0.34573  1.0000
  C   C166      1.0  0.10528  0.56705  0.34834  1.0000
  N   N82       1.0  0.08318  0.54519  0.35154  1.0000
  C   C167      1.0  0.05313  0.55316  0.34977  1.0000
  N   N83       1.0  0.04513  0.58320  0.34680  1.0000
  C   C168      1.0  0.06703  0.60528  0.34486  1.0000
  N   N84       1.0  0.09709  0.59710  0.34555  1.0000
  C   C169      1.0  0.33167  0.04427  0.41920  1.0000
  C   C170      1.0  0.36274  0.05241  0.42057  1.0000
  H   H61       1.0  0.37358  0.05442  0.48181  1.0000
  H   H62       1.0  0.32071  0.04077  0.47970  1.0000
  C   C171      1.0  0.68325  0.97047  0.41896  1.0000
  C   C172      1.0  0.65218  0.96229  0.42024  1.0000
  H   H63       1.0  0.64134  0.96023  0.48145  1.0000
  H   H64       1.0  0.69419  0.97393  0.47950  1.0000
  C   C173      1.0  0.97059  0.33167  0.41921  1.0000
  C   C174      1.0  0.96246  0.36276  0.42057  1.0000
  H   H65       1.0  0.96046  0.37359  0.48181  1.0000
  H   H66       1.0  0.97409  0.32072  0.47971  1.0000
  C   C175      1.0  0.04440  0.68326  0.41893  1.0000
  C   C176      1.0  0.05258  0.65219  0.42022  1.0000
  H   H67       1.0  0.05463  0.64134  0.48143  1.0000
  H   H68       1.0  0.04095  0.69420  0.47946  1.0000
  C   C177      1.0  0.13634  0.55852  0.35480  1.0000
  C   C178      1.0  0.15160  0.55537  0.43946  1.0000
  C   C179      1.0  0.18342  0.54723  0.44129  1.0000
  C   C180      1.0  0.19933  0.54180  0.35851  1.0000
  C   C181      1.0  0.19728  0.54529  0.52811  1.0000
  N   N85       1.0  0.18080  0.55051  0.60402  1.0000
  C   C182      1.0  0.15079  0.55781  0.60076  1.0000
  O   O13       1.0  0.22709  0.53842  0.54198  1.0000
  N   N86       1.0  0.13651  0.56029  0.51969  1.0000
  H   H69       1.0  0.13917  0.56161  0.65980  1.0000
  H   H70       1.0  0.11489  0.56578  0.52093  1.0000
  C   C183      1.0  0.87855  0.45637  0.35493  1.0000
  C   C184      1.0  0.86323  0.45944  0.43952  1.0000
  C   C185      1.0  0.83142  0.46760  0.44126  1.0000
  C   C186      1.0  0.81556  0.47307  0.35842  1.0000
  C   C187      1.0  0.81752  0.46952  0.52802  1.0000
  N   N87       1.0  0.83395  0.46423  0.60399  1.0000
  C   C188      1.0  0.86394  0.45687  0.60083  1.0000
  O   O14       1.0  0.78772  0.47643  0.54181  1.0000
  N   N88       1.0  0.87825  0.45441  0.51980  1.0000
  H   H71       1.0  0.87552  0.45300  0.65990  1.0000
  H   H72       1.0  0.89983  0.44881  0.52112  1.0000
  C   C189      1.0  0.55853  0.87850  0.35481  1.0000
  C   C190      1.0  0.55537  0.86325  0.43946  1.0000
  C   C191      1.0  0.54723  0.83143  0.44130  1.0000
  C   C192      1.0  0.54177  0.81553  0.35852  1.0000
  C   C193      1.0  0.54528  0.81758  0.52811  1.0000
  N   N89       1.0  0.55051  0.83405  0.60402  1.0000
  C   C194      1.0  0.55782  0.86406  0.60078  1.0000
  O   O15       1.0  0.53840  0.78777  0.54198  1.0000
  N   N90       1.0  0.56030  0.87834  0.51970  1.0000
  H   H73       1.0  0.56163  0.87568  0.65981  1.0000
  H   H74       1.0  0.56580  0.89995  0.52095  1.0000
  C   C195      1.0  0.45637  0.13631  0.35497  1.0000
  C   C196      1.0  0.45944  0.15162  0.43956  1.0000
  C   C197      1.0  0.46762  0.18343  0.44130  1.0000
  C   C198      1.0  0.47312  0.19929  0.35847  1.0000
  C   C199      1.0  0.46953  0.19733  0.52807  1.0000
  N   N91       1.0  0.46423  0.18091  0.60403  1.0000
  C   C200      1.0  0.45685  0.15092  0.60087  1.0000
  O   O16       1.0  0.47646  0.22713  0.54185  1.0000
  N   N92       1.0  0.45440  0.13660  0.51984  1.0000
  H   H75       1.0  0.45298  0.13933  0.65993  1.0000
  H   H76       1.0  0.44880  0.11503  0.52115  1.0000
  C   C201      1.0  0.19152  0.14479  0.35656  1.0000
  C   C202      1.0  0.19985  0.13054  0.43986  1.0000
  C   C203      1.0  0.21203  0.09992  0.44029  1.0000
  C   C204      1.0  0.21558  0.08335  0.35759  1.0000
  C   C205      1.0  0.22016  0.08768  0.52614  1.0000
  N   N93       1.0  0.21619  0.10427  0.60248  1.0000
  C   C206      1.0  0.20468  0.13295  0.60059  1.0000
  O   O17       1.0  0.23125  0.05906  0.53886  1.0000
  N   N94       1.0  0.19668  0.14580  0.52054  1.0000
  H   H77       1.0  0.20202  0.14468  0.65998  1.0000
  H   H78       1.0  0.18830  0.16645  0.52292  1.0000
  C   C207      1.0  0.82332  0.87004  0.35659  1.0000
  C   C208      1.0  0.81500  0.88429  0.43989  1.0000
  C   C209      1.0  0.80284  0.91492  0.44032  1.0000
  C   C210      1.0  0.79931  0.93147  0.35760  1.0000
  C   C211      1.0  0.79469  0.92716  0.52616  1.0000
  N   N95       1.0  0.79866  0.91057  0.60250  1.0000
  C   C212      1.0  0.81015  0.88188  0.60061  1.0000
  O   O18       1.0  0.78365  0.95579  0.53888  1.0000
  N   N96       1.0  0.81815  0.86903  0.52057  1.0000
  H   H79       1.0  0.81281  0.87015  0.66001  1.0000
  H   H80       1.0  0.82652  0.84838  0.52294  1.0000
  C   C213      1.0  0.87007  0.19153  0.35661  1.0000
  C   C214      1.0  0.88431  0.19986  0.43992  1.0000
  C   C215      1.0  0.91493  0.21204  0.44038  1.0000
  C   C216      1.0  0.93149  0.21559  0.35766  1.0000
  C   C217      1.0  0.92717  0.22018  0.52623  1.0000
  N   N97       1.0  0.91057  0.21619  0.60256  1.0000
  C   C218      1.0  0.88189  0.20469  0.60065  1.0000
  O   O19       1.0  0.95579  0.23123  0.53897  1.0000
  N   N98       1.0  0.86905  0.19669  0.52060  1.0000
  H   H81       1.0  0.87017  0.20201  0.66004  1.0000
  H   H82       1.0  0.84840  0.18831  0.52296  1.0000
  C   C219      1.0  0.14480  0.82334  0.35661  1.0000
  C   C220      1.0  0.13055  0.81501  0.43992  1.0000
  C   C221      1.0  0.09992  0.80286  0.44037  1.0000
  C   C222      1.0  0.08336  0.79933  0.35765  1.0000
  C   C223      1.0  0.08768  0.79472  0.52622  1.0000
  N   N99       1.0  0.10428  0.79868  0.60255  1.0000
  C   C224      1.0  0.13296  0.81018  0.60065  1.0000
  O   O20       1.0  0.05905  0.78367  0.53894  1.0000
  N   N100      1.0  0.14582  0.81817  0.52060  1.0000
  H   H83       1.0  0.14469  0.81284  0.66004  1.0000
  H   H84       1.0  0.16647  0.82654  0.52297  1.0000
  C   C225      1.0  0.30779  0.59824  0.41930  1.0000
  C   C226      1.0  0.31976  0.62819  0.41945  1.0000
  H   H85       1.0  0.32486  0.63819  0.48034  1.0000
  H   H86       1.0  0.30415  0.58770  0.48033  1.0000
  C   C227      1.0  0.70709  0.41660  0.41930  1.0000
  C   C228      1.0  0.69511  0.38665  0.41944  1.0000
  H   H87       1.0  0.69001  0.37665  0.48033  1.0000
  H   H88       1.0  0.71075  0.42714  0.48031  1.0000
  C   C229      1.0  0.59824  0.70703  0.41930  1.0000
  C   C230      1.0  0.62818  0.69504  0.41944  1.0000
  H   H89       1.0  0.63819  0.68996  0.48033  1.0000
  H   H90       1.0  0.58769  0.71068  0.48031  1.0000
  C   C231      1.0  0.41660  0.30770  0.41917  1.0000
  C   C232      1.0  0.38665  0.31968  0.41938  1.0000
  H   H91       1.0  0.37664  0.32471  0.48030  1.0000
  H   H92       1.0  0.42712  0.30399  0.48019  1.0000
  C   C233      1.0  0.22731  0.95481  0.42074  1.0000
  C   C234      1.0  0.22101  0.92315  0.42185  1.0000
  H   H93       1.0  0.21878  0.91241  0.48314  1.0000
  H   H94       1.0  0.22989  0.96588  0.48140  1.0000
  C   C235      1.0  0.78763  0.06002  0.42069  1.0000
  C   C236      1.0  0.79391  0.09169  0.42181  1.0000
  H   H95       1.0  0.79615  0.10242  0.48310  1.0000
  H   H96       1.0  0.78506  0.04895  0.48135  1.0000
  C   C237      1.0  0.06002  0.22726  0.42070  1.0000
  C   C238      1.0  0.09167  0.22095  0.42181  1.0000
  H   H97       1.0  0.10241  0.21870  0.48310  1.0000
  H   H98       1.0  0.04894  0.22983  0.48137  1.0000
  C   C239      1.0  0.95483  0.78761  0.42071  1.0000
  C   C240      1.0  0.92317  0.79388  0.42183  1.0000
  H   H99       1.0  0.91243  0.79614  0.48311  1.0000
  H   H100      1.0  0.96591  0.78505  0.48138  1.0000
  C   C241      1.0  0.29633  0.40621  0.35385  1.0000
  C   C242      1.0  0.29247  0.42181  0.43790  1.0000
  C   C243      1.0  0.28647  0.45423  0.43941  1.0000
  C   C244      1.0  0.28408  0.47115  0.35691  1.0000
  C   C245      1.0  0.28342  0.46790  0.52620  1.0000
  N   N101      1.0  0.28578  0.45087  0.60229  1.0000
  C   C246      1.0  0.29095  0.42043  0.59931  1.0000
  O   O21       1.0  0.27946  0.49825  0.53995  1.0000
  N   N102      1.0  0.29437  0.40622  0.51840  1.0000
  H   H101      1.0  0.29260  0.40841  0.65853  1.0000
  H   H102      1.0  0.29832  0.38428  0.52000  1.0000
  C   C247      1.0  0.71852  0.60859  0.35380  1.0000
  C   C248      1.0  0.72237  0.59300  0.43787  1.0000
  C   C249      1.0  0.72836  0.56057  0.43936  1.0000
  C   C250      1.0  0.73077  0.54366  0.35686  1.0000
  C   C251      1.0  0.73140  0.54690  0.52616  1.0000
  N   N103      1.0  0.72904  0.56393  0.60225  1.0000
  C   C252      1.0  0.72388  0.59437  0.59927  1.0000
  O   O22       1.0  0.73535  0.51655  0.53989  1.0000
  N   N104      1.0  0.72047  0.60858  0.51837  1.0000
  H   H103      1.0  0.72223  0.60639  0.65849  1.0000
  H   H104      1.0  0.71652  0.63053  0.51997  1.0000
  C   C253      1.0  0.40625  0.71852  0.35385  1.0000
  C   C254      1.0  0.42183  0.72237  0.43793  1.0000
  C   C255      1.0  0.45426  0.72836  0.43946  1.0000
  C   C256      1.0  0.47117  0.73075  0.35696  1.0000
  C   C257      1.0  0.46791  0.73141  0.52627  1.0000
  N   N105      1.0  0.45088  0.72905  0.60234  1.0000
  C   C258      1.0  0.42044  0.72390  0.59933  1.0000
  O   O23       1.0  0.49827  0.73535  0.54002  1.0000
  N   N106      1.0  0.40624  0.72048  0.51842  1.0000
  H   H105      1.0  0.40842  0.72224  0.65855  1.0000
  H   H106      1.0  0.38429  0.71653  0.52000  1.0000
  C   C259      1.0  0.60862  0.29631  0.35383  1.0000
  C   C260      1.0  0.59302  0.29247  0.43789  1.0000
  C   C261      1.0  0.56060  0.28648  0.43938  1.0000
  C   C262      1.0  0.54368  0.28412  0.35690  1.0000
  C   C263      1.0  0.54693  0.28344  0.52618  1.0000
  N   N107      1.0  0.56395  0.28579  0.60227  1.0000
  C   C264      1.0  0.59440  0.29095  0.59929  1.0000
  O   O24       1.0  0.51657  0.27950  0.53989  1.0000
  N   N108      1.0  0.60860  0.29436  0.51840  1.0000
  H   H107      1.0  0.60641  0.29258  0.65852  1.0000
  H   H108      1.0  0.63055  0.29830  0.52000  1.0000
  C   C265      1.0  0.26160  0.29999  0.35393  1.0000
  C   C266      1.0  0.25071  0.28800  0.43782  1.0000
  C   C267      1.0  0.22735  0.26469  0.43903  1.0000
  C   C268      1.0  0.21480  0.25331  0.35631  1.0000
  C   C269      1.0  0.21792  0.25415  0.52566  1.0000
  N   N109      1.0  0.23059  0.26567  0.60188  1.0000
  C   C270      1.0  0.25253  0.28741  0.59923  1.0000
  O   O25       1.0  0.19600  0.23274  0.53923  1.0000
  N   N110      1.0  0.26237  0.29835  0.51849  1.0000
  H   H109      1.0  0.26148  0.29549  0.65858  1.0000
  H   H110      1.0  0.27816  0.31409  0.52031  1.0000
  C   C271      1.0  0.75324  0.71482  0.35389  1.0000
  C   C272      1.0  0.76412  0.72683  0.43778  1.0000
  C   C273      1.0  0.78748  0.75013  0.43902  1.0000
  C   C274      1.0  0.80004  0.76152  0.35631  1.0000
  C   C275      1.0  0.79690  0.76068  0.52566  1.0000
  N   N111      1.0  0.78423  0.74915  0.60186  1.0000
  C   C276      1.0  0.76228  0.72741  0.59919  1.0000
  O   O26       1.0  0.81882  0.78208  0.53924  1.0000
  N   N112      1.0  0.75246  0.71647  0.51844  1.0000
  H   H111      1.0  0.75334  0.71932  0.65853  1.0000
  H   H112      1.0  0.73667  0.70072  0.52024  1.0000
  C   C277      1.0  0.71484  0.26160  0.35391  1.0000
  C   C278      1.0  0.72684  0.25072  0.43779  1.0000
  C   C279      1.0  0.75015  0.22736  0.43902  1.0000
  C   C280      1.0  0.76155  0.21482  0.35631  1.0000
  C   C281      1.0  0.76070  0.21794  0.52566  1.0000
  N   N113      1.0  0.74916  0.23060  0.60187  1.0000
  C   C282      1.0  0.72742  0.25254  0.59921  1.0000
  O   O27       1.0  0.78211  0.19602  0.53924  1.0000
  N   N114      1.0  0.71648  0.26237  0.51846  1.0000
  H   H113      1.0  0.71933  0.26149  0.65855  1.0000
  H   H114      1.0  0.70073  0.27816  0.52026  1.0000
  C   C283      1.0  0.30001  0.75323  0.35389  1.0000
  C   C284      1.0  0.28801  0.76411  0.43779  1.0000
  C   C285      1.0  0.26471  0.78747  0.43903  1.0000
  C   C286      1.0  0.25331  0.80002  0.35632  1.0000
  C   C287      1.0  0.25416  0.79689  0.52568  1.0000
  N   N115      1.0  0.26570  0.78422  0.60187  1.0000
  C   C288      1.0  0.28744  0.76228  0.59921  1.0000
  O   O28       1.0  0.23276  0.81881  0.53926  1.0000
  N   N116      1.0  0.29837  0.75245  0.51845  1.0000
  H   H115      1.0  0.29553  0.75333  0.65854  1.0000
  H   H116      1.0  0.31412  0.73666  0.52025  1.0000
  C   C289      1.0  0.53046  0.98447  0.35549  1.0000
  C   C290      1.0  0.51917  0.99552  0.43977  1.0000
  C   C291      1.0  0.49593  0.01870  0.44057  1.0000
  C   C292      1.0  0.48448  0.03032  0.35700  1.0000
  C   C293      1.0  0.48565  0.02867  0.52698  1.0000
  N   N117      1.0  0.49761  0.01661  0.60349  1.0000
  C   C294      1.0  0.51955  0.99484  0.60121  1.0000
  O   O29       1.0  0.46378  0.05018  0.53984  1.0000
  N   N118      1.0  0.53010  0.98450  0.52056  1.0000
  H   H117      1.0  0.52797  0.98634  0.66070  1.0000
  H   H118      1.0  0.54592  0.96878  0.52248  1.0000
  C   C295      1.0  0.03038  0.53046  0.35550  1.0000
  C   C296      1.0  0.01932  0.51917  0.43977  1.0000
  C   C297      1.0  0.99615  0.49593  0.44058  1.0000
  C   C298      1.0  0.98453  0.48449  0.35701  1.0000
  C   C299      1.0  0.98617  0.48566  0.52698  1.0000
  N   N119      1.0  0.99824  0.49762  0.60349  1.0000
  C   C300      1.0  0.02000  0.51955  0.60122  1.0000
  O   O30       1.0  0.96466  0.46379  0.53984  1.0000
  N   N120      1.0  0.03035  0.53010  0.52057  1.0000
  H   H119      1.0  0.02851  0.52798  0.66071  1.0000
  H   H120      1.0  0.04606  0.54592  0.52250  1.0000
