data_image0
_chemical_formula_structural       C2NHCHC2NHCH3C3OHC3OHNCOCH2NC3H2NHNCOCH2NC3H2NHC3NH5C6N2H6C6N2H6C2OCH3NC2OCH3NCHNC2OCH3NC2OCH3NC2OCH3C3HNH2C3HNC3NH3C3HNC3NH3NCNCOCH3C2OCH2CNCOCH3CNCOCH3CNCOCH3C3NH5C6N2H6C6N2H6C2OCH3NC2OCH3NCHNC2OCH3NC2OCH3NC2OCH3C3HNH2C3HNC3NH3C3HNC3NH3NCNCOCH3C2OCH2CNCOCH3CNCOCH3CNCOCH3C6N2H5C6N2H6C6N2H6NC2OCH3NC2OCH3NC2OCH3NC2OCH3NC2OCH3NC2OCH3C3HNC3NH3C3HNC3NH3C3HNC3NH3CNCOCH3CNCOCH3CNCOCH3CNCOCH3CNCOCH3CNCOCH3C6N2H5C6N2H6C6N2H6NC2OCH3NC2OCH3NC2OCH3NC2OCH3NC2OCH3NC2OCH3C3HNC3NH3C3HNC3NH3C3HNC3NH3CNCOCH3CNCOCH3CNCOCH3CNCOCH3CNCOCH3CNCOCH3
_chemical_formula_sum              "C288 N96 H264 O48"
_cell_length_a       45.8623
_cell_length_b       45.8623
_cell_length_c       14.9244
_cell_angle_alpha    90
_cell_angle_beta     90
_cell_angle_gamma    120

_space_group_name_H-M_alt    "P 1"
_space_group_IT_number       1

loop_
  _space_group_symop_operation_xyz
  'x, y, z'

loop_
  _atom_site_type_symbol
  _atom_site_label
  _atom_site_symmetry_multiplicity
  _atom_site_fract_x
  _atom_site_fract_y
  _atom_site_fract_z
  _atom_site_occupancy
  C   C1        1.0  0.01929  0.26120  0.31749  1.0000
  C   C2        1.0  0.03893  0.29707  0.30190  1.0000
  N   N1        1.0  0.02805  0.31219  0.24233  1.0000
  H   H1        1.0  0.04096  0.33609  0.22893  1.0000
  C   C3        1.0  0.03789  0.24575  0.34784  1.0000
  H   H2        1.0  0.02663  0.22034  0.35609  1.0000
  C   C4        1.0  0.01929  0.76119  0.31749  1.0000
  C   C5        1.0  0.03893  0.79706  0.30190  1.0000
  N   N2        1.0  0.02805  0.81219  0.24233  1.0000
  H   H3        1.0  0.04096  0.83609  0.22893  1.0000
  C   C6        1.0  0.03788  0.74575  0.34784  1.0000
  H   H4        1.0  0.02663  0.72034  0.35609  1.0000
  H   H5        1.0  0.00944  0.29885  0.20193  1.0000
  H   H6        1.0  0.00944  0.79885  0.20193  1.0000
  C   C7        1.0  0.07139  0.31675  0.34266  1.0000
  C   C8        1.0  0.08646  0.29948  0.38393  1.0000
  C   C9        1.0  0.07195  0.26427  0.37311  1.0000
  O   O1        1.0  0.07896  0.21308  0.47670  1.0000
  H   H7        1.0  0.07362  0.21227  0.61363  1.0000
  C   C10       1.0  0.07139  0.81675  0.34266  1.0000
  C   C11       1.0  0.08646  0.79948  0.38393  1.0000
  C   C12       1.0  0.07195  0.76427  0.37311  1.0000
  O   O2        1.0  0.07896  0.71308  0.47670  1.0000
  H   H8        1.0  0.07363  0.71227  0.61363  1.0000
  N   N3        1.0  0.11695  0.26865  0.28658  1.0000
  C   C13       1.0  0.09404  0.35102  0.31988  1.0000
  O   O3        1.0  0.11969  0.33384  0.20354  1.0000
  C   C14       1.0  0.11432  0.33887  0.11139  1.0000
  H   H9        1.0  0.11392  0.31866  0.07205  1.0000
  H   H10       1.0  0.09019  0.33788  0.10225  1.0000
  N   N4        1.0  0.11506  0.31587  0.43429  1.0000
  C   C15       1.0  0.09374  0.25166  0.35151  1.0000
  C   C16       1.0  0.09971  0.23001  0.40633  1.0000
  C   C17       1.0  0.09186  0.22796  0.56293  1.0000
  H   H11       1.0  0.09511  0.25316  0.56747  1.0000
  H   H12       1.0  0.11574  0.22909  0.57777  1.0000
  N   N5        1.0  0.10064  0.37548  0.38198  1.0000
  H   H13       1.0  0.11687  0.39297  0.56209  1.0000
  N   N6        1.0  0.11695  0.76866  0.28658  1.0000
  C   C18       1.0  0.09404  0.85101  0.31988  1.0000
  O   O4        1.0  0.11969  0.83384  0.20354  1.0000
  C   C19       1.0  0.11432  0.83888  0.11139  1.0000
  H   H14       1.0  0.11392  0.81865  0.07205  1.0000
  H   H15       1.0  0.09019  0.83788  0.10225  1.0000
  N   N7        1.0  0.11506  0.81587  0.43429  1.0000
  C   C20       1.0  0.09374  0.75166  0.35151  1.0000
  C   C21       1.0  0.09971  0.73001  0.40633  1.0000
  C   C22       1.0  0.09186  0.72796  0.56293  1.0000
  H   H16       1.0  0.09510  0.75316  0.56747  1.0000
  H   H17       1.0  0.11574  0.72909  0.57777  1.0000
  N   N8        1.0  0.10064  0.87548  0.38198  1.0000
  H   H18       1.0  0.11687  0.89297  0.56209  1.0000
  C   C23       1.0  0.48312  0.24123  0.30646  1.0000
  C   C24       1.0  0.42904  0.18638  0.30530  1.0000
  C   C25       1.0  0.46461  0.20544  0.28985  1.0000
  N   N9        1.0  0.47967  0.18971  0.24893  1.0000
  H   H19       1.0  0.00105  0.20293  0.21835  1.0000
  H   H20       1.0  0.46692  0.16622  0.23110  1.0000
  H   H21       1.0  0.50944  0.29885  0.20193  1.0000
  H   H22       1.0  0.12259  0.33847  0.45529  1.0000
  H   H23       1.0  0.36447  0.16281  0.34852  1.0000
  C   C26       1.0  0.26272  0.24638  0.32527  1.0000
  C   C27       1.0  0.31993  0.25379  0.34482  1.0000
  C   C28       1.0  0.29820  0.26422  0.30516  1.0000
  C   C29       1.0  0.24215  0.26202  0.32657  1.0000
  C   C30       1.0  0.20605  0.24462  0.31629  1.0000
  C   C31       1.0  0.18698  0.25930  0.34970  1.0000
  N   N10       1.0  0.31089  0.29007  0.24479  1.0000
  N   N11       1.0  0.19007  0.21560  0.26753  1.0000
  H   H24       1.0  0.29603  0.29442  0.20783  1.0000
  H   H25       1.0  0.33465  0.30264  0.22950  1.0000
  H   H26       1.0  0.16594  0.20394  0.25711  1.0000
  H   H27       1.0  0.20279  0.20851  0.23032  1.0000
  H   H28       1.0  0.16667  0.29200  0.45474  1.0000
  H   H29       1.0  0.34426  0.22651  0.46033  1.0000
  C   C32       1.0  0.26306  0.02246  0.32411  1.0000
  C   C33       1.0  0.26609  0.07727  0.35481  1.0000
  C   C34       1.0  0.24899  0.04423  0.31615  1.0000
  C   C35       1.0  0.24431  0.48614  0.31709  1.0000
  C   C36       1.0  0.25977  0.46607  0.29845  1.0000
  C   C37       1.0  0.24475  0.43239  0.33156  1.0000
  N   N12       1.0  0.22142  0.03498  0.26322  1.0000
  N   N13       1.0  0.28702  0.47793  0.24288  1.0000
  H   H30       1.0  0.21376  0.51612  0.22207  1.0000
  H   H31       1.0  0.21193  0.04948  0.25368  1.0000
  H   H32       1.0  0.29691  0.46432  0.22580  1.0000
  H   H33       1.0  0.29387  0.99811  0.20738  1.0000
  H   H34       1.0  0.21284  0.38059  0.44037  1.0000
  H   H35       1.0  0.29976  0.12839  0.46516  1.0000
  C   C38       1.0  0.14430  0.26568  0.26900  1.0000
  C   C39       1.0  0.15242  0.24688  0.32922  1.0000
  O   O5        1.0  0.16713  0.28788  0.20886  1.0000
  C   C40       1.0  0.16137  0.27470  0.11931  1.0000
  H   H36       1.0  0.18049  0.29381  0.07590  1.0000
  H   H37       1.0  0.13666  0.26906  0.09452  1.0000
  H   H38       1.0  0.16362  0.25210  0.11540  1.0000
  N   N14       1.0  0.23381  0.35201  0.27653  1.0000
  C   C41       1.0  0.23675  0.38201  0.25533  1.0000
  C   C42       1.0  0.25681  0.41001  0.31119  1.0000
  O   O6        1.0  0.21354  0.38165  0.19703  1.0000
  C   C43       1.0  0.22549  0.38818  0.10624  1.0000
  H   H39       1.0  0.20570  0.38749  0.06431  1.0000
  H   H40       1.0  0.23105  0.36901  0.08181  1.0000
  H   H41       1.0  0.24786  0.41308  0.09957  1.0000
  N   N15       1.0  0.15061  0.38616  0.27207  1.0000
  C   C44       1.0  0.12048  0.35796  0.25913  1.0000
  H   H42       1.0  0.13463  0.36282  0.08593  1.0000
  N   N16       1.0  0.38432  0.24379  0.24180  1.0000
  C   C45       1.0  0.35785  0.24917  0.23975  1.0000
  C   C46       1.0  0.35333  0.26570  0.31405  1.0000
  O   O7        1.0  0.33201  0.22983  0.18230  1.0000
  C   C47       1.0  0.33862  0.24189  0.09159  1.0000
  H   H43       1.0  0.31665  0.22542  0.05118  1.0000
  H   H44       1.0  0.36034  0.24122  0.06388  1.0000
  H   H45       1.0  0.34273  0.26747  0.08683  1.0000
  N   N17       1.0  0.28126  0.16003  0.29826  1.0000
  C   C48       1.0  0.27987  0.13040  0.28253  1.0000
  C   C49       1.0  0.25718  0.10203  0.33377  1.0000
  O   O8        1.0  0.30506  0.13105  0.23196  1.0000
  C   C50       1.0  0.29594  0.12355  0.13929  1.0000
  H   H46       1.0  0.31717  0.12454  0.10376  1.0000
  H   H47       1.0  0.29053  0.14203  0.10898  1.0000
  H   H48       1.0  0.27423  0.09828  0.13099  1.0000
  N   N18       1.0  0.35705  0.10460  0.27103  1.0000
  C   C51       1.0  0.38644  0.13170  0.24369  1.0000
  C   C52       1.0  0.41117  0.15058  0.30922  1.0000
  O   O9        1.0  0.38679  0.14546  0.16212  1.0000
  C   C53       1.0  0.39439  0.12972  0.08975  1.0000
  H   H49       1.0  0.39445  0.14227  0.02768  1.0000
  H   H50       1.0  0.37536  0.10309  0.08382  1.0000
  H   H51       1.0  0.41925  0.13225  0.09789  1.0000
  C   C54       1.0  0.46331  0.25692  0.31964  1.0000
  C   C55       1.0  0.42791  0.23946  0.31306  1.0000
  C   C56       1.0  0.41064  0.20366  0.31750  1.0000
  H   H52       1.0  0.47467  0.28216  0.33178  1.0000
  N   N19       1.0  0.37709  0.18676  0.33945  1.0000
  H   H53       1.0  0.12301  0.30338  0.46891  1.0000
  H   H54       1.0  0.36587  0.19841  0.36077  1.0000
  C   C57       1.0  0.24909  0.21207  0.35143  1.0000
  C   C58       1.0  0.26996  0.19858  0.37148  1.0000
  C   C59       1.0  0.30463  0.22147  0.38623  1.0000
  H   H55       1.0  0.22381  0.19635  0.35812  1.0000
  N   N20       1.0  0.32205  0.21079  0.43817  1.0000
  C   C60       1.0  0.20472  0.29290  0.38300  1.0000
  C   C61       1.0  0.23964  0.31324  0.36687  1.0000
  C   C62       1.0  0.25792  0.29720  0.34525  1.0000
  N   N21       1.0  0.18898  0.30643  0.43096  1.0000
  H   H56       1.0  0.28348  0.31196  0.34773  1.0000
  H   H57       1.0  0.20227  0.32736  0.46291  1.0000
  H   H58       1.0  0.31033  0.18961  0.47068  1.0000
  C   C63       1.0  0.29803  0.03897  0.34584  1.0000
  C   C64       1.0  0.31629  0.07205  0.37916  1.0000
  C   C65       1.0  0.29843  0.08939  0.39490  1.0000
  H   H59       1.0  0.31061  0.02590  0.34840  1.0000
  N   N22       1.0  0.31256  0.11781  0.44668  1.0000
  C   C66       1.0  0.21169  0.41743  0.36779  1.0000
  C   C67       1.0  0.19182  0.43259  0.35245  1.0000
  C   C68       1.0  0.20898  0.46756  0.33601  1.0000
  N   N23       1.0  0.19842  0.38856  0.41722  1.0000
  H   H60       1.0  0.19512  0.47921  0.34216  1.0000
  H   H61       1.0  0.17748  0.38069  0.44935  1.0000
  H   H62       1.0  0.33307  0.12470  0.48017  1.0000
  N   N24       1.0  0.12943  0.23012  0.39543  1.0000
  C   C69       1.0  0.25198  0.34710  0.34060  1.0000
  N   N25       1.0  0.27492  0.40516  0.37624  1.0000
  C   C70       1.0  0.27510  0.37574  0.39002  1.0000
  O   O10       1.0  0.29336  0.37330  0.45913  1.0000
  C   C71       1.0  0.27936  0.37164  0.54647  1.0000
  H   H63       1.0  0.29619  0.37047  0.59609  1.0000
  H   H64       1.0  0.25471  0.34908  0.55375  1.0000
  H   H65       1.0  0.27730  0.39394  0.56046  1.0000
  C   C72       1.0  0.15722  0.41106  0.33210  1.0000
  C   C73       1.0  0.13004  0.40574  0.38797  1.0000
  O   O11       1.0  0.13425  0.42766  0.45562  1.0000
  C   C74       1.0  0.13859  0.41706  0.54290  1.0000
  H   H66       1.0  0.14110  0.43596  0.59137  1.0000
  H   H67       1.0  0.16139  0.41522  0.54598  1.0000
  C   C75       1.0  0.40962  0.25672  0.30325  1.0000
  N   N26       1.0  0.37889  0.27923  0.37519  1.0000
  C   C76       1.0  0.40778  0.27756  0.37042  1.0000
  O   O12       1.0  0.43030  0.28978  0.43987  1.0000
  C   C77       1.0  0.41869  0.27052  0.52128  1.0000
  H   H68       1.0  0.43904  0.28162  0.57019  1.0000
  H   H69       1.0  0.41209  0.24433  0.51082  1.0000
  H   H70       1.0  0.39708  0.27135  0.54901  1.0000
  C   C78       1.0  0.26010  0.16455  0.35284  1.0000
  N   N27       1.0  0.23565  0.10623  0.38842  1.0000
  C   C79       1.0  0.23455  0.13545  0.39589  1.0000
  O   O13       1.0  0.21332  0.13744  0.45677  1.0000
  C   C80       1.0  0.22489  0.14105  0.54789  1.0000
  H   H71       1.0  0.20648  0.14257  0.59086  1.0000
  H   H72       1.0  0.24910  0.16409  0.55697  1.0000
  H   H73       1.0  0.22702  0.11940  0.56919  1.0000
  C   C81       1.0  0.35081  0.09129  0.35516  1.0000
  N   N28       1.0  0.40460  0.13760  0.39387  1.0000
  C   C82       1.0  0.37709  0.10797  0.41833  1.0000
  O   O14       1.0  0.37251  0.09969  0.50718  1.0000
  C   C83       1.0  0.38001  0.07362  0.52897  1.0000
  H   H74       1.0  0.37586  0.06854  0.60055  1.0000
  H   H75       1.0  0.40628  0.08146  0.51437  1.0000
  H   H76       1.0  0.36349  0.05028  0.49310  1.0000
  C   C84       1.0  0.48312  0.74123  0.30646  1.0000
  C   C85       1.0  0.42904  0.68638  0.30530  1.0000
  C   C86       1.0  0.46461  0.70544  0.28985  1.0000
  N   N29       1.0  0.47967  0.68971  0.24893  1.0000
  H   H77       1.0  0.00105  0.70293  0.21835  1.0000
  H   H78       1.0  0.46692  0.66622  0.23110  1.0000
  H   H79       1.0  0.50944  0.79885  0.20193  1.0000
  H   H80       1.0  0.12259  0.83847  0.45529  1.0000
  H   H81       1.0  0.36447  0.66281  0.34852  1.0000
  C   C87       1.0  0.26272  0.74638  0.32527  1.0000
  C   C88       1.0  0.31993  0.75380  0.34482  1.0000
  C   C89       1.0  0.29820  0.76422  0.30516  1.0000
  C   C90       1.0  0.24215  0.76202  0.32657  1.0000
  C   C91       1.0  0.20605  0.74462  0.31629  1.0000
  C   C92       1.0  0.18698  0.75930  0.34970  1.0000
  N   N30       1.0  0.31089  0.79006  0.24479  1.0000
  N   N31       1.0  0.19008  0.71560  0.26753  1.0000
  H   H82       1.0  0.29603  0.79443  0.20783  1.0000
  H   H83       1.0  0.33465  0.80264  0.22950  1.0000
  H   H84       1.0  0.16594  0.70394  0.25711  1.0000
  H   H85       1.0  0.20279  0.70851  0.23032  1.0000
  H   H86       1.0  0.16667  0.79200  0.45474  1.0000
  H   H87       1.0  0.34426  0.72651  0.46033  1.0000
  C   C93       1.0  0.26306  0.52246  0.32411  1.0000
  C   C94       1.0  0.26609  0.57727  0.35481  1.0000
  C   C95       1.0  0.24899  0.54423  0.31615  1.0000
  C   C96       1.0  0.24431  0.98614  0.31709  1.0000
  C   C97       1.0  0.25977  0.96607  0.29845  1.0000
  C   C98       1.0  0.24475  0.93239  0.33156  1.0000
  N   N32       1.0  0.22142  0.53497  0.26322  1.0000
  N   N33       1.0  0.28702  0.97793  0.24288  1.0000
  H   H88       1.0  0.21376  0.01612  0.22207  1.0000
  H   H89       1.0  0.21193  0.54948  0.25368  1.0000
  H   H90       1.0  0.29691  0.96432  0.22580  1.0000
  H   H91       1.0  0.29387  0.49811  0.20738  1.0000
  H   H92       1.0  0.21284  0.88059  0.44037  1.0000
  H   H93       1.0  0.29976  0.62839  0.46516  1.0000
  C   C99       1.0  0.14430  0.76568  0.26900  1.0000
  C   C100      1.0  0.15242  0.74688  0.32922  1.0000
  O   O15       1.0  0.16713  0.78788  0.20886  1.0000
  C   C101      1.0  0.16137  0.77471  0.11931  1.0000
  H   H94       1.0  0.18049  0.79381  0.07590  1.0000
  H   H95       1.0  0.13666  0.76906  0.09452  1.0000
  H   H96       1.0  0.16362  0.75210  0.11540  1.0000
  N   N34       1.0  0.23381  0.85201  0.27653  1.0000
  C   C102      1.0  0.23675  0.88201  0.25533  1.0000
  C   C103      1.0  0.25681  0.91001  0.31119  1.0000
  O   O16       1.0  0.21354  0.88165  0.19703  1.0000
  C   C104      1.0  0.22549  0.88818  0.10624  1.0000
  H   H97       1.0  0.20570  0.88749  0.06431  1.0000
  H   H98       1.0  0.23105  0.86901  0.08181  1.0000
  H   H99       1.0  0.24786  0.91308  0.09957  1.0000
  N   N35       1.0  0.15061  0.88616  0.27207  1.0000
  C   C105      1.0  0.12048  0.85796  0.25913  1.0000
  H   H100      1.0  0.13463  0.86282  0.08593  1.0000
  N   N36       1.0  0.38432  0.74379  0.24180  1.0000
  C   C106      1.0  0.35785  0.74917  0.23975  1.0000
  C   C107      1.0  0.35333  0.76570  0.31405  1.0000
  O   O17       1.0  0.33201  0.72982  0.18230  1.0000
  C   C108      1.0  0.33862  0.74189  0.09159  1.0000
  H   H101      1.0  0.31666  0.72542  0.05118  1.0000
  H   H102      1.0  0.36034  0.74123  0.06388  1.0000
  H   H103      1.0  0.34274  0.76747  0.08683  1.0000
  N   N37       1.0  0.28126  0.66004  0.29826  1.0000
  C   C109      1.0  0.27987  0.63040  0.28253  1.0000
  C   C110      1.0  0.25718  0.60203  0.33377  1.0000
  O   O18       1.0  0.30506  0.63105  0.23196  1.0000
  C   C111      1.0  0.29594  0.62355  0.13929  1.0000
  H   H104      1.0  0.31717  0.62454  0.10376  1.0000
  H   H105      1.0  0.29053  0.64203  0.10898  1.0000
  H   H106      1.0  0.27423  0.59828  0.13099  1.0000
  N   N38       1.0  0.35705  0.60460  0.27103  1.0000
  C   C112      1.0  0.38644  0.63170  0.24369  1.0000
  C   C113      1.0  0.41117  0.65058  0.30922  1.0000
  O   O19       1.0  0.38680  0.64546  0.16212  1.0000
  C   C114      1.0  0.39439  0.62972  0.08975  1.0000
  H   H107      1.0  0.39445  0.64227  0.02768  1.0000
  H   H108      1.0  0.37536  0.60309  0.08382  1.0000
  H   H109      1.0  0.41925  0.63225  0.09789  1.0000
  C   C115      1.0  0.46331  0.75693  0.31964  1.0000
  C   C116      1.0  0.42791  0.73946  0.31306  1.0000
  C   C117      1.0  0.41065  0.70366  0.31750  1.0000
  H   H110      1.0  0.47468  0.78216  0.33178  1.0000
  N   N39       1.0  0.37709  0.68676  0.33945  1.0000
  H   H111      1.0  0.12301  0.80338  0.46891  1.0000
  H   H112      1.0  0.36587  0.69841  0.36077  1.0000
  C   C118      1.0  0.24909  0.71207  0.35143  1.0000
  C   C119      1.0  0.26996  0.69858  0.37148  1.0000
  C   C120      1.0  0.30463  0.72147  0.38623  1.0000
  H   H113      1.0  0.22381  0.69635  0.35812  1.0000
  N   N40       1.0  0.32205  0.71079  0.43817  1.0000
  C   C121      1.0  0.20472  0.79289  0.38300  1.0000
  C   C122      1.0  0.23964  0.81324  0.36687  1.0000
  C   C123      1.0  0.25793  0.79720  0.34525  1.0000
  N   N41       1.0  0.18899  0.80643  0.43096  1.0000
  H   H114      1.0  0.28348  0.81196  0.34773  1.0000
  H   H115      1.0  0.20227  0.82736  0.46291  1.0000
  H   H116      1.0  0.31033  0.68961  0.47068  1.0000
  C   C124      1.0  0.29803  0.53897  0.34584  1.0000
  C   C125      1.0  0.31630  0.57205  0.37916  1.0000
  C   C126      1.0  0.29843  0.58939  0.39490  1.0000
  H   H117      1.0  0.31061  0.52590  0.34840  1.0000
  N   N42       1.0  0.31256  0.61781  0.44668  1.0000
  C   C127      1.0  0.21169  0.91743  0.36779  1.0000
  C   C128      1.0  0.19182  0.93259  0.35245  1.0000
  C   C129      1.0  0.20898  0.96756  0.33601  1.0000
  N   N43       1.0  0.19842  0.88856  0.41722  1.0000
  H   H118      1.0  0.19512  0.97921  0.34216  1.0000
  H   H119      1.0  0.17748  0.88069  0.44935  1.0000
  H   H120      1.0  0.33307  0.62470  0.48017  1.0000
  N   N44       1.0  0.12943  0.73012  0.39543  1.0000
  C   C130      1.0  0.25197  0.84710  0.34060  1.0000
  N   N45       1.0  0.27493  0.90516  0.37624  1.0000
  C   C131      1.0  0.27510  0.87574  0.39002  1.0000
  O   O20       1.0  0.29336  0.87330  0.45913  1.0000
  C   C132      1.0  0.27936  0.87164  0.54647  1.0000
  H   H121      1.0  0.29619  0.87047  0.59609  1.0000
  H   H122      1.0  0.25471  0.84908  0.55375  1.0000
  H   H123      1.0  0.27730  0.89394  0.56046  1.0000
  C   C133      1.0  0.15722  0.91107  0.33210  1.0000
  C   C134      1.0  0.13004  0.90574  0.38797  1.0000
  O   O21       1.0  0.13425  0.92766  0.45562  1.0000
  C   C135      1.0  0.13859  0.91707  0.54290  1.0000
  H   H124      1.0  0.14110  0.93596  0.59137  1.0000
  H   H125      1.0  0.16139  0.91522  0.54598  1.0000
  C   C136      1.0  0.40963  0.75673  0.30325  1.0000
  N   N46       1.0  0.37889  0.77923  0.37519  1.0000
  C   C137      1.0  0.40778  0.77756  0.37042  1.0000
  O   O22       1.0  0.43030  0.78978  0.43987  1.0000
  C   C138      1.0  0.41869  0.77052  0.52128  1.0000
  H   H126      1.0  0.43904  0.78162  0.57019  1.0000
  H   H127      1.0  0.41209  0.74433  0.51082  1.0000
  H   H128      1.0  0.39708  0.77134  0.54901  1.0000
  C   C139      1.0  0.26011  0.66455  0.35284  1.0000
  N   N47       1.0  0.23565  0.60623  0.38842  1.0000
  C   C140      1.0  0.23455  0.63545  0.39589  1.0000
  O   O23       1.0  0.21333  0.63744  0.45677  1.0000
  C   C141      1.0  0.22489  0.64105  0.54789  1.0000
  H   H129      1.0  0.20648  0.64257  0.59086  1.0000
  H   H130      1.0  0.24910  0.66409  0.55697  1.0000
  H   H131      1.0  0.22703  0.61940  0.56919  1.0000
  C   C142      1.0  0.35081  0.59129  0.35516  1.0000
  N   N48       1.0  0.40460  0.63760  0.39387  1.0000
  C   C143      1.0  0.37709  0.60797  0.41833  1.0000
  O   O24       1.0  0.37251  0.59969  0.50718  1.0000
  C   C144      1.0  0.38001  0.57362  0.52897  1.0000
  H   H132      1.0  0.37586  0.56854  0.60055  1.0000
  H   H133      1.0  0.40628  0.58146  0.51437  1.0000
  H   H134      1.0  0.36349  0.55028  0.49310  1.0000
  C   C145      1.0  0.98312  0.24123  0.30646  1.0000
  C   C146      1.0  0.92904  0.18638  0.30530  1.0000
  C   C147      1.0  0.96461  0.20544  0.28985  1.0000
  C   C148      1.0  0.51929  0.26120  0.31749  1.0000
  C   C149      1.0  0.53893  0.29707  0.30190  1.0000
  C   C150      1.0  0.57139  0.31675  0.34266  1.0000
  N   N49       1.0  0.97967  0.18971  0.24893  1.0000
  N   N50       1.0  0.52804  0.31219  0.24233  1.0000
  H   H135      1.0  0.50105  0.20293  0.21835  1.0000
  H   H136      1.0  0.96692  0.16622  0.23110  1.0000
  H   H137      1.0  0.54096  0.33609  0.22893  1.0000
  H   H138      1.0  0.62259  0.33847  0.45529  1.0000
  H   H139      1.0  0.86447  0.16281  0.34852  1.0000
  C   C151      1.0  0.76272  0.24638  0.32527  1.0000
  C   C152      1.0  0.81992  0.25379  0.34482  1.0000
  C   C153      1.0  0.79820  0.26422  0.30516  1.0000
  C   C154      1.0  0.74215  0.26202  0.32657  1.0000
  C   C155      1.0  0.70605  0.24462  0.31629  1.0000
  C   C156      1.0  0.68698  0.25930  0.34970  1.0000
  N   N51       1.0  0.81089  0.29007  0.24479  1.0000
  N   N52       1.0  0.69008  0.21560  0.26753  1.0000
  H   H140      1.0  0.79603  0.29442  0.20783  1.0000
  H   H141      1.0  0.83465  0.30264  0.22950  1.0000
  H   H142      1.0  0.66594  0.20394  0.25711  1.0000
  H   H143      1.0  0.70279  0.20851  0.23032  1.0000
  H   H144      1.0  0.66667  0.29200  0.45474  1.0000
  H   H145      1.0  0.84425  0.22651  0.46033  1.0000
  C   C157      1.0  0.76306  0.02246  0.32411  1.0000
  C   C158      1.0  0.76609  0.07727  0.35481  1.0000
  C   C159      1.0  0.74899  0.04423  0.31615  1.0000
  C   C160      1.0  0.74431  0.48614  0.31709  1.0000
  C   C161      1.0  0.75977  0.46607  0.29845  1.0000
  C   C162      1.0  0.74475  0.43239  0.33156  1.0000
  N   N53       1.0  0.72142  0.03498  0.26322  1.0000
  N   N54       1.0  0.78702  0.47793  0.24288  1.0000
  H   H146      1.0  0.71376  0.51612  0.22207  1.0000
  H   H147      1.0  0.71192  0.04948  0.25368  1.0000
  H   H148      1.0  0.79691  0.46432  0.22580  1.0000
  H   H149      1.0  0.79387  0.99811  0.20738  1.0000
  H   H150      1.0  0.71284  0.38059  0.44037  1.0000
  H   H151      1.0  0.79976  0.12839  0.46516  1.0000
  N   N55       1.0  0.61695  0.26865  0.28658  1.0000
  C   C163      1.0  0.64430  0.26568  0.26900  1.0000
  C   C164      1.0  0.65242  0.24688  0.32922  1.0000
  O   O25       1.0  0.66713  0.28788  0.20886  1.0000
  C   C165      1.0  0.66137  0.27470  0.11931  1.0000
  H   H152      1.0  0.68049  0.29381  0.07590  1.0000
  H   H153      1.0  0.63666  0.26906  0.09452  1.0000
  H   H154      1.0  0.66362  0.25210  0.11540  1.0000
  N   N56       1.0  0.73381  0.35201  0.27653  1.0000
  C   C166      1.0  0.73674  0.38201  0.25533  1.0000
  C   C167      1.0  0.75681  0.41001  0.31119  1.0000
  O   O26       1.0  0.71354  0.38165  0.19703  1.0000
  C   C168      1.0  0.72549  0.38818  0.10624  1.0000
  H   H155      1.0  0.70570  0.38749  0.06431  1.0000
  H   H156      1.0  0.73105  0.36901  0.08181  1.0000
  H   H157      1.0  0.74786  0.41308  0.09957  1.0000
  N   N57       1.0  0.65061  0.38616  0.27207  1.0000
  C   C169      1.0  0.62048  0.35796  0.25913  1.0000
  C   C170      1.0  0.59404  0.35102  0.31988  1.0000
  O   O27       1.0  0.61969  0.33384  0.20354  1.0000
  C   C171      1.0  0.61432  0.33887  0.11139  1.0000
  H   H158      1.0  0.61392  0.31866  0.07205  1.0000
  H   H159      1.0  0.63463  0.36282  0.08593  1.0000
  H   H160      1.0  0.59019  0.33788  0.10225  1.0000
  N   N58       1.0  0.88432  0.24379  0.24180  1.0000
  C   C172      1.0  0.85785  0.24917  0.23975  1.0000
  C   C173      1.0  0.85333  0.26570  0.31405  1.0000
  O   O28       1.0  0.83200  0.22983  0.18230  1.0000
  C   C174      1.0  0.83862  0.24189  0.09159  1.0000
  H   H161      1.0  0.81666  0.22542  0.05118  1.0000
  H   H162      1.0  0.86034  0.24122  0.06388  1.0000
  H   H163      1.0  0.84273  0.26747  0.08683  1.0000
  N   N59       1.0  0.78126  0.16003  0.29826  1.0000
  C   C175      1.0  0.77987  0.13040  0.28253  1.0000
  C   C176      1.0  0.75718  0.10203  0.33377  1.0000
  O   O29       1.0  0.80506  0.13105  0.23196  1.0000
  C   C177      1.0  0.79594  0.12355  0.13929  1.0000
  H   H164      1.0  0.81717  0.12454  0.10376  1.0000
  H   H165      1.0  0.79053  0.14203  0.10898  1.0000
  H   H166      1.0  0.77424  0.09828  0.13099  1.0000
  N   N60       1.0  0.85705  0.10460  0.27103  1.0000
  C   C178      1.0  0.88644  0.13170  0.24369  1.0000
  C   C179      1.0  0.91117  0.15058  0.30922  1.0000
  O   O30       1.0  0.88680  0.14546  0.16212  1.0000
  C   C180      1.0  0.89439  0.12972  0.08975  1.0000
  H   H167      1.0  0.89445  0.14227  0.02768  1.0000
  H   H168      1.0  0.87536  0.10309  0.08382  1.0000
  H   H169      1.0  0.91924  0.13225  0.09789  1.0000
  C   C181      1.0  0.96331  0.25692  0.31964  1.0000
  C   C182      1.0  0.92791  0.23946  0.31306  1.0000
  C   C183      1.0  0.91065  0.20366  0.31750  1.0000
  H   H170      1.0  0.97467  0.28216  0.33178  1.0000
  N   N61       1.0  0.87709  0.18676  0.33945  1.0000
  C   C184      1.0  0.58645  0.29948  0.38393  1.0000
  C   C185      1.0  0.57195  0.26427  0.37311  1.0000
  C   C186      1.0  0.53789  0.24575  0.34784  1.0000
  N   N62       1.0  0.61506  0.31587  0.43429  1.0000
  H   H171      1.0  0.52663  0.22034  0.35609  1.0000
  H   H172      1.0  0.62301  0.30338  0.46891  1.0000
  H   H173      1.0  0.86587  0.19841  0.36077  1.0000
  C   C187      1.0  0.74909  0.21207  0.35143  1.0000
  C   C188      1.0  0.76996  0.19858  0.37148  1.0000
  C   C189      1.0  0.80463  0.22147  0.38623  1.0000
  H   H174      1.0  0.72381  0.19635  0.35812  1.0000
  N   N63       1.0  0.82205  0.21079  0.43817  1.0000
  C   C190      1.0  0.70472  0.29290  0.38300  1.0000
  C   C191      1.0  0.73964  0.31324  0.36687  1.0000
  C   C192      1.0  0.75792  0.29720  0.34525  1.0000
  N   N64       1.0  0.68899  0.30643  0.43096  1.0000
  H   H175      1.0  0.78348  0.31196  0.34773  1.0000
  H   H176      1.0  0.70227  0.32736  0.46291  1.0000
  H   H177      1.0  0.81033  0.18961  0.47068  1.0000
  C   C193      1.0  0.79804  0.03897  0.34584  1.0000
  C   C194      1.0  0.81630  0.07205  0.37916  1.0000
  C   C195      1.0  0.79843  0.08939  0.39490  1.0000
  H   H178      1.0  0.81061  0.02590  0.34840  1.0000
  N   N65       1.0  0.81256  0.11781  0.44668  1.0000
  C   C196      1.0  0.71169  0.41743  0.36779  1.0000
  C   C197      1.0  0.69182  0.43259  0.35245  1.0000
  C   C198      1.0  0.70898  0.46756  0.33601  1.0000
  N   N66       1.0  0.69842  0.38856  0.41722  1.0000
  H   H179      1.0  0.69512  0.47921  0.34216  1.0000
  H   H180      1.0  0.67748  0.38069  0.44935  1.0000
  H   H181      1.0  0.83307  0.12470  0.48017  1.0000
  C   C199      1.0  0.59374  0.25166  0.35151  1.0000
  N   N67       1.0  0.62943  0.23012  0.39543  1.0000
  C   C200      1.0  0.59971  0.23001  0.40633  1.0000
  O   O31       1.0  0.57896  0.21308  0.47670  1.0000
  C   C201      1.0  0.59186  0.22796  0.56293  1.0000
  H   H182      1.0  0.57363  0.21227  0.61363  1.0000
  H   H183      1.0  0.59511  0.25316  0.56747  1.0000
  H   H184      1.0  0.61574  0.22909  0.57777  1.0000
  C   C202      1.0  0.75197  0.34710  0.34060  1.0000
  N   N68       1.0  0.77492  0.40516  0.37624  1.0000
  C   C203      1.0  0.77510  0.37574  0.39002  1.0000
  O   O32       1.0  0.79336  0.37330  0.45913  1.0000
  C   C204      1.0  0.77936  0.37164  0.54647  1.0000
  H   H185      1.0  0.79619  0.37047  0.59609  1.0000
  H   H186      1.0  0.75471  0.34908  0.55375  1.0000
  H   H187      1.0  0.77730  0.39394  0.56046  1.0000
  C   C205      1.0  0.65722  0.41106  0.33210  1.0000
  N   N69       1.0  0.60064  0.37548  0.38198  1.0000
  C   C206      1.0  0.63004  0.40574  0.38797  1.0000
  O   O33       1.0  0.63426  0.42766  0.45562  1.0000
  C   C207      1.0  0.63859  0.41706  0.54290  1.0000
  H   H188      1.0  0.64110  0.43596  0.59137  1.0000
  H   H189      1.0  0.66139  0.41522  0.54598  1.0000
  H   H190      1.0  0.61687  0.39297  0.56209  1.0000
  C   C208      1.0  0.90963  0.25672  0.30325  1.0000
  N   N70       1.0  0.87889  0.27923  0.37519  1.0000
  C   C209      1.0  0.90778  0.27756  0.37042  1.0000
  O   O34       1.0  0.93030  0.28978  0.43987  1.0000
  C   C210      1.0  0.91869  0.27052  0.52128  1.0000
  H   H191      1.0  0.93904  0.28162  0.57019  1.0000
  H   H192      1.0  0.91209  0.24433  0.51082  1.0000
  H   H193      1.0  0.89707  0.27135  0.54901  1.0000
  C   C211      1.0  0.76010  0.16455  0.35284  1.0000
  N   N71       1.0  0.73565  0.10623  0.38842  1.0000
  C   C212      1.0  0.73455  0.13545  0.39589  1.0000
  O   O35       1.0  0.71332  0.13744  0.45677  1.0000
  C   C213      1.0  0.72489  0.14105  0.54789  1.0000
  H   H194      1.0  0.70648  0.14257  0.59086  1.0000
  H   H195      1.0  0.74910  0.16409  0.55697  1.0000
  H   H196      1.0  0.72703  0.11940  0.56919  1.0000
  C   C214      1.0  0.85082  0.09129  0.35516  1.0000
  N   N72       1.0  0.90460  0.13760  0.39387  1.0000
  C   C215      1.0  0.87709  0.10797  0.41833  1.0000
  O   O36       1.0  0.87251  0.09969  0.50718  1.0000
  C   C216      1.0  0.88001  0.07362  0.52897  1.0000
  H   H197      1.0  0.87586  0.06854  0.60055  1.0000
  H   H198      1.0  0.90628  0.08146  0.51437  1.0000
  H   H199      1.0  0.86349  0.05028  0.49310  1.0000
  C   C217      1.0  0.98312  0.74123  0.30646  1.0000
  C   C218      1.0  0.92904  0.68638  0.30530  1.0000
  C   C219      1.0  0.96461  0.70544  0.28985  1.0000
  C   C220      1.0  0.51929  0.76119  0.31749  1.0000
  C   C221      1.0  0.53893  0.79706  0.30190  1.0000
  C   C222      1.0  0.57139  0.81675  0.34266  1.0000
  N   N73       1.0  0.97967  0.68971  0.24893  1.0000
  N   N74       1.0  0.52805  0.81219  0.24233  1.0000
  H   H200      1.0  0.50105  0.70293  0.21835  1.0000
  H   H201      1.0  0.96692  0.66622  0.23110  1.0000
  H   H202      1.0  0.54096  0.83609  0.22893  1.0000
  H   H203      1.0  0.62259  0.83847  0.45529  1.0000
  H   H204      1.0  0.86447  0.66281  0.34852  1.0000
  C   C223      1.0  0.76272  0.74638  0.32527  1.0000
  C   C224      1.0  0.81993  0.75380  0.34482  1.0000
  C   C225      1.0  0.79820  0.76422  0.30516  1.0000
  C   C226      1.0  0.74215  0.76202  0.32657  1.0000
  C   C227      1.0  0.70605  0.74462  0.31629  1.0000
  C   C228      1.0  0.68698  0.75930  0.34970  1.0000
  N   N75       1.0  0.81089  0.79006  0.24479  1.0000
  N   N76       1.0  0.69008  0.71560  0.26753  1.0000
  H   H205      1.0  0.79603  0.79443  0.20783  1.0000
  H   H206      1.0  0.83465  0.80264  0.22950  1.0000
  H   H207      1.0  0.66594  0.70394  0.25711  1.0000
  H   H208      1.0  0.70279  0.70851  0.23032  1.0000
  H   H209      1.0  0.66668  0.79200  0.45474  1.0000
  H   H210      1.0  0.84426  0.72651  0.46033  1.0000
  C   C229      1.0  0.76306  0.52246  0.32411  1.0000
  C   C230      1.0  0.76609  0.57727  0.35481  1.0000
  C   C231      1.0  0.74899  0.54423  0.31615  1.0000
  C   C232      1.0  0.74431  0.98614  0.31709  1.0000
  C   C233      1.0  0.75977  0.96607  0.29845  1.0000
  C   C234      1.0  0.74475  0.93239  0.33156  1.0000
  N   N77       1.0  0.72142  0.53497  0.26322  1.0000
  N   N78       1.0  0.78701  0.97793  0.24288  1.0000
  H   H211      1.0  0.71376  0.01612  0.22207  1.0000
  H   H212      1.0  0.71193  0.54948  0.25368  1.0000
  H   H213      1.0  0.79691  0.96432  0.22580  1.0000
  H   H214      1.0  0.79387  0.49811  0.20738  1.0000
  H   H215      1.0  0.71284  0.88059  0.44037  1.0000
  H   H216      1.0  0.79976  0.62839  0.46516  1.0000
  N   N79       1.0  0.61695  0.76866  0.28658  1.0000
  C   C235      1.0  0.64430  0.76568  0.26900  1.0000
  C   C236      1.0  0.65242  0.74688  0.32922  1.0000
  O   O37       1.0  0.66713  0.78788  0.20886  1.0000
  C   C237      1.0  0.66137  0.77471  0.11931  1.0000
  H   H217      1.0  0.68049  0.79381  0.07590  1.0000
  H   H218      1.0  0.63666  0.76906  0.09452  1.0000
  H   H219      1.0  0.66362  0.75210  0.11540  1.0000
  N   N80       1.0  0.73381  0.85201  0.27653  1.0000
  C   C238      1.0  0.73675  0.88201  0.25533  1.0000
  C   C239      1.0  0.75681  0.91001  0.31119  1.0000
  O   O38       1.0  0.71354  0.88165  0.19703  1.0000
  C   C240      1.0  0.72549  0.88818  0.10624  1.0000
  H   H220      1.0  0.70570  0.88749  0.06431  1.0000
  H   H221      1.0  0.73105  0.86901  0.08181  1.0000
  H   H222      1.0  0.74786  0.91308  0.09957  1.0000
  N   N81       1.0  0.65061  0.88616  0.27207  1.0000
  C   C241      1.0  0.62048  0.85796  0.25913  1.0000
  C   C242      1.0  0.59404  0.85101  0.31988  1.0000
  O   O39       1.0  0.61969  0.83384  0.20354  1.0000
  C   C243      1.0  0.61432  0.83888  0.11139  1.0000
  H   H223      1.0  0.61392  0.81865  0.07205  1.0000
  H   H224      1.0  0.63463  0.86282  0.08593  1.0000
  H   H225      1.0  0.59019  0.83788  0.10225  1.0000
  N   N82       1.0  0.88432  0.74379  0.24180  1.0000
  C   C244      1.0  0.85785  0.74917  0.23975  1.0000
  C   C245      1.0  0.85333  0.76570  0.31405  1.0000
  O   O40       1.0  0.83201  0.72982  0.18230  1.0000
  C   C246      1.0  0.83862  0.74189  0.09159  1.0000
  H   H226      1.0  0.81666  0.72542  0.05118  1.0000
  H   H227      1.0  0.86034  0.74123  0.06388  1.0000
  H   H228      1.0  0.84273  0.76747  0.08683  1.0000
  N   N83       1.0  0.78126  0.66004  0.29826  1.0000
  C   C247      1.0  0.77987  0.63040  0.28253  1.0000
  C   C248      1.0  0.75718  0.60203  0.33377  1.0000
  O   O41       1.0  0.80507  0.63105  0.23196  1.0000
  C   C249      1.0  0.79594  0.62355  0.13929  1.0000
  H   H229      1.0  0.81717  0.62454  0.10376  1.0000
  H   H230      1.0  0.79053  0.64203  0.10898  1.0000
  H   H231      1.0  0.77423  0.59828  0.13099  1.0000
  N   N84       1.0  0.85705  0.60460  0.27103  1.0000
  C   C250      1.0  0.88644  0.63170  0.24369  1.0000
  C   C251      1.0  0.91117  0.65058  0.30922  1.0000
  O   O42       1.0  0.88680  0.64546  0.16212  1.0000
  C   C252      1.0  0.89439  0.62972  0.08975  1.0000
  H   H232      1.0  0.89445  0.64227  0.02768  1.0000
  H   H233      1.0  0.87536  0.60309  0.08382  1.0000
  H   H234      1.0  0.91925  0.63225  0.09789  1.0000
  C   C253      1.0  0.96331  0.75693  0.31964  1.0000
  C   C254      1.0  0.92791  0.73946  0.31306  1.0000
  C   C255      1.0  0.91065  0.70366  0.31750  1.0000
  H   H235      1.0  0.97468  0.78216  0.33178  1.0000
  N   N85       1.0  0.87709  0.68676  0.33945  1.0000
  C   C256      1.0  0.58646  0.79948  0.38393  1.0000
  C   C257      1.0  0.57195  0.76427  0.37311  1.0000
  C   C258      1.0  0.53788  0.74575  0.34784  1.0000
  N   N86       1.0  0.61506  0.81587  0.43429  1.0000
  H   H236      1.0  0.52663  0.72034  0.35609  1.0000
  H   H237      1.0  0.62301  0.80338  0.46891  1.0000
  H   H238      1.0  0.86587  0.69841  0.36077  1.0000
  C   C259      1.0  0.74909  0.71207  0.35143  1.0000
  C   C260      1.0  0.76996  0.69858  0.37148  1.0000
  C   C261      1.0  0.80463  0.72147  0.38623  1.0000
  H   H239      1.0  0.72381  0.69635  0.35812  1.0000
  N   N87       1.0  0.82205  0.71079  0.43817  1.0000
  C   C262      1.0  0.70472  0.79289  0.38300  1.0000
  C   C263      1.0  0.73964  0.81324  0.36687  1.0000
  C   C264      1.0  0.75793  0.79720  0.34525  1.0000
  N   N88       1.0  0.68899  0.80643  0.43096  1.0000
  H   H240      1.0  0.78348  0.81196  0.34773  1.0000
  H   H241      1.0  0.70227  0.82736  0.46291  1.0000
  H   H242      1.0  0.81033  0.68961  0.47068  1.0000
  C   C265      1.0  0.79803  0.53897  0.34584  1.0000
  C   C266      1.0  0.81630  0.57205  0.37916  1.0000
  C   C267      1.0  0.79843  0.58939  0.39490  1.0000
  H   H243      1.0  0.81061  0.52590  0.34840  1.0000
  N   N89       1.0  0.81256  0.61781  0.44668  1.0000
  C   C268      1.0  0.71169  0.91743  0.36779  1.0000
  C   C269      1.0  0.69182  0.93259  0.35245  1.0000
  C   C270      1.0  0.70898  0.96756  0.33601  1.0000
  N   N90       1.0  0.69842  0.88856  0.41722  1.0000
  H   H244      1.0  0.69512  0.97921  0.34216  1.0000
  H   H245      1.0  0.67748  0.88069  0.44935  1.0000
  H   H246      1.0  0.83307  0.62470  0.48017  1.0000
  C   C271      1.0  0.59374  0.75166  0.35151  1.0000
  N   N91       1.0  0.62943  0.73012  0.39543  1.0000
  C   C272      1.0  0.59971  0.73001  0.40633  1.0000
  O   O43       1.0  0.57896  0.71308  0.47670  1.0000
  C   C273      1.0  0.59186  0.72796  0.56293  1.0000
  H   H247      1.0  0.57363  0.71227  0.61363  1.0000
  H   H248      1.0  0.59511  0.75316  0.56747  1.0000
  H   H249      1.0  0.61574  0.72909  0.57777  1.0000
  C   C274      1.0  0.75197  0.84710  0.34060  1.0000
  N   N92       1.0  0.77493  0.90516  0.37624  1.0000
  C   C275      1.0  0.77510  0.87574  0.39002  1.0000
  O   O44       1.0  0.79336  0.87330  0.45913  1.0000
  C   C276      1.0  0.77937  0.87164  0.54647  1.0000
  H   H250      1.0  0.79619  0.87047  0.59609  1.0000
  H   H251      1.0  0.75471  0.84908  0.55375  1.0000
  H   H252      1.0  0.77730  0.89394  0.56046  1.0000
  C   C277      1.0  0.65722  0.91107  0.33210  1.0000
  N   N93       1.0  0.60064  0.87548  0.38198  1.0000
  C   C278      1.0  0.63004  0.90574  0.38797  1.0000
  O   O45       1.0  0.63426  0.92766  0.45562  1.0000
  C   C279      1.0  0.63859  0.91707  0.54290  1.0000
  H   H253      1.0  0.64110  0.93596  0.59137  1.0000
  H   H254      1.0  0.66139  0.91522  0.54598  1.0000
  H   H255      1.0  0.61687  0.89297  0.56209  1.0000
  C   C280      1.0  0.90963  0.75673  0.30325  1.0000
  N   N94       1.0  0.87889  0.77923  0.37519  1.0000
  C   C281      1.0  0.90778  0.77756  0.37042  1.0000
  O   O46       1.0  0.93030  0.78978  0.43987  1.0000
  C   C282      1.0  0.91869  0.77052  0.52128  1.0000
  H   H256      1.0  0.93904  0.78162  0.57019  1.0000
  H   H257      1.0  0.91209  0.74433  0.51082  1.0000
  H   H258      1.0  0.89708  0.77134  0.54901  1.0000
  C   C283      1.0  0.76011  0.66455  0.35284  1.0000
  N   N95       1.0  0.73565  0.60623  0.38842  1.0000
  C   C284      1.0  0.73455  0.63545  0.39589  1.0000
  O   O47       1.0  0.71332  0.63744  0.45677  1.0000
  C   C285      1.0  0.72489  0.64105  0.54789  1.0000
  H   H259      1.0  0.70648  0.64257  0.59086  1.0000
  H   H260      1.0  0.74910  0.66409  0.55697  1.0000
  H   H261      1.0  0.72703  0.61940  0.56919  1.0000
  C   C286      1.0  0.85082  0.59129  0.35516  1.0000
  N   N96       1.0  0.90460  0.63760  0.39387  1.0000
  C   C287      1.0  0.87709  0.60797  0.41833  1.0000
  O   O48       1.0  0.87251  0.59969  0.50718  1.0000
  C   C288      1.0  0.88001  0.57362  0.52897  1.0000
  H   H262      1.0  0.87586  0.56854  0.60055  1.0000
  H   H263      1.0  0.90628  0.58146  0.51437  1.0000
  H   H264      1.0  0.86349  0.55028  0.49310  1.0000
