data_image0
_chemical_formula_structural       C2NC2O2C2H5C2NC2O2C2H5C2NC2O2C2H5NCHNCHNCHNCHNCHNCHNC18H12NC18H12NC18H12NC18H12NC18H12NC18H12NCHNCHNCHC2NC2O2C2H5C2NC2O2C2H5C2NC2O2C2H5C2NC2O2C2H5C2NC2O2C2H5C2NC2O2C2H5
_chemical_formula_sum              "C171 N24 O18 H126"
_cell_length_a       52.3948
_cell_length_b       52.3948
_cell_length_c       14.8922
_cell_angle_alpha    90
_cell_angle_beta     90
_cell_angle_gamma    120

_space_group_name_H-M_alt    "P 1"
_space_group_IT_number       1

loop_
  _space_group_symop_operation_xyz
  'x, y, z'

loop_
  _atom_site_type_symbol
  _atom_site_label
  _atom_site_symmetry_multiplicity
  _atom_site_fract_x
  _atom_site_fract_y
  _atom_site_fract_z
  _atom_site_occupancy
  C   C1        1.0  0.03621  0.52136  0.33943  1.0000
  C   C2        1.0  0.97371  0.49022  0.35081  1.0000
  N   N1        1.0  0.98860  0.49444  0.27222  1.0000
  C   C3        1.0  0.01848  0.50916  0.26127  1.0000
  C   C4        1.0  0.02952  0.50961  0.17628  1.0000
  O   O1        1.0  0.01348  0.50564  0.11154  1.0000
  O   O2        1.0  0.04703  0.49777  0.17041  1.0000
  C   C5        1.0  0.06876  0.50917  0.09964  1.0000
  C   C6        1.0  0.09047  0.49780  0.11340  1.0000
  H   H1        1.0  0.08126  0.53328  0.09975  1.0000
  H   H2        1.0  0.05807  0.50165  0.03424  1.0000
  H   H3        1.0  0.10166  0.50538  0.17793  1.0000
  H   H4        1.0  0.10695  0.50604  0.06000  1.0000
  H   H5        1.0  0.07870  0.47375  0.11219  1.0000
  C   C7        1.0  0.48762  0.51662  0.33935  1.0000
  C   C8        1.0  0.51874  0.48523  0.35077  1.0000
  N   N2        1.0  0.51459  0.49596  0.27220  1.0000
  C   C9        1.0  0.49990  0.51115  0.26125  1.0000
  C   C10       1.0  0.49947  0.52176  0.17627  1.0000
  O   O3        1.0  0.50348  0.50972  0.11152  1.0000
  O   O4        1.0  0.51131  0.55112  0.17051  1.0000
  C   C11       1.0  0.49994  0.56147  0.09971  1.0000
  C   C12       1.0  0.51130  0.59454  0.11358  1.0000
  H   H6        1.0  0.47583  0.54986  0.09970  1.0000
  H   H7        1.0  0.50750  0.55833  0.03434  1.0000
  H   H8        1.0  0.50367  0.59812  0.17809  1.0000
  H   H9        1.0  0.50308  0.60281  0.06017  1.0000
  H   H10       1.0  0.53535  0.60683  0.11248  1.0000
  C   C13       1.0  0.49240  0.97275  0.33927  1.0000
  C   C14       1.0  0.52378  0.03525  0.35067  1.0000
  N   N3        1.0  0.51305  0.02037  0.27210  1.0000
  C   C15       1.0  0.49786  0.99049  0.26115  1.0000
  C   C16       1.0  0.48725  0.97945  0.17619  1.0000
  O   O5        1.0  0.49928  0.99549  0.11143  1.0000
  O   O6        1.0  0.45789  0.96193  0.17043  1.0000
  C   C17       1.0  0.44754  0.94020  0.09962  1.0000
  C   C18       1.0  0.41447  0.91848  0.11350  1.0000
  H   H11       1.0  0.45915  0.92771  0.09960  1.0000
  H   H12       1.0  0.45067  0.95090  0.03425  1.0000
  H   H13       1.0  0.41090  0.90728  0.17801  1.0000
  H   H14       1.0  0.40621  0.90201  0.06008  1.0000
  H   H15       1.0  0.40218  0.93024  0.11242  1.0000
  N   N4        1.0  0.29920  0.56411  0.28377  1.0000
  C   C19       1.0  0.27426  0.56543  0.27167  1.0000
  H   H16       1.0  0.27281  0.57591  0.21589  1.0000
  N   N5        1.0  0.44480  0.73680  0.28376  1.0000
  C   C20       1.0  0.44345  0.71053  0.27169  1.0000
  H   H17       1.0  0.43299  0.69859  0.21589  1.0000
  N   N6        1.0  0.27211  0.70981  0.28394  1.0000
  C   C21       1.0  0.29836  0.73476  0.27176  1.0000
  H   H18       1.0  0.31018  0.73631  0.21560  1.0000
  N   N7        1.0  0.71102  0.44921  0.27623  1.0000
  C   C22       1.0  0.73653  0.44917  0.26159  1.0000
  H   H19       1.0  0.73980  0.44331  0.19932  1.0000
  N   N8        1.0  0.55976  0.26354  0.27615  1.0000
  C   C23       1.0  0.55980  0.28908  0.26152  1.0000
  H   H20       1.0  0.56564  0.29820  0.19923  1.0000
  N   N9        1.0  0.74539  0.29801  0.27594  1.0000
  C   C24       1.0  0.71981  0.27253  0.26136  1.0000
  H   H21       1.0  0.71056  0.26937  0.19929  1.0000
  N   N10       1.0  0.16267  0.58458  0.35079  1.0000
  C   C25       1.0  0.18041  0.61582  0.35728  1.0000
  C   C26       1.0  0.13126  0.56941  0.34853  1.0000
  C   C27       1.0  0.17883  0.56948  0.34335  1.0000
  C   C28       1.0  0.19220  0.56946  0.26117  1.0000
  C   C29       1.0  0.21529  0.56305  0.25841  1.0000
  C   C30       1.0  0.22620  0.55680  0.33777  1.0000
  C   C31       1.0  0.21123  0.55504  0.41902  1.0000
  C   C32       1.0  0.18816  0.56144  0.42189  1.0000
  C   C33       1.0  0.18854  0.63337  0.27902  1.0000
  C   C34       1.0  0.21176  0.66280  0.28051  1.0000
  C   C35       1.0  0.22826  0.67556  0.35973  1.0000
  C   C36       1.0  0.21997  0.65781  0.43793  1.0000
  C   C37       1.0  0.19612  0.62869  0.43722  1.0000
  C   C38       1.0  0.11587  0.57434  0.27909  1.0000
  C   C39       1.0  0.08481  0.55919  0.27709  1.0000
  C   C40       1.0  0.06785  0.53763  0.34234  1.0000
  C   C41       1.0  0.08342  0.53322  0.41284  1.0000
  C   C42       1.0  0.11449  0.54887  0.41603  1.0000
  H   H22       1.0  0.21753  0.67437  0.22151  1.0000
  H   H23       1.0  0.17897  0.62423  0.21885  1.0000
  H   H24       1.0  0.19187  0.61611  0.49369  1.0000
  H   H25       1.0  0.23237  0.66521  0.49507  1.0000
  H   H26       1.0  0.18668  0.57632  0.20383  1.0000
  H   H27       1.0  0.22484  0.56433  0.19757  1.0000
  H   H28       1.0  0.12716  0.58917  0.22942  1.0000
  H   H29       1.0  0.07468  0.56420  0.22703  1.0000
  H   H30       1.0  0.07222  0.51807  0.46212  1.0000
  H   H31       1.0  0.12487  0.54488  0.46765  1.0000
  H   H32       1.0  0.17983  0.56255  0.48291  1.0000
  H   H33       1.0  0.21837  0.55124  0.47878  1.0000
  N   N11       1.0  0.42439  0.57983  0.35050  1.0000
  C   C43       1.0  0.39315  0.56634  0.35697  1.0000
  C   C44       1.0  0.43955  0.56359  0.34832  1.0000
  C   C45       1.0  0.43950  0.61110  0.34319  1.0000
  C   C46       1.0  0.43944  0.62447  0.26104  1.0000
  C   C47       1.0  0.44594  0.65400  0.25822  1.0000
  C   C48       1.0  0.45222  0.67116  0.33757  1.0000
  C   C49       1.0  0.45398  0.65795  0.41882  1.0000
  C   C50       1.0  0.44761  0.62849  0.42169  1.0000
  C   C51       1.0  0.37560  0.55685  0.27871  1.0000
  C   C52       1.0  0.34617  0.55065  0.28010  1.0000
  C   C53       1.0  0.33340  0.55440  0.35928  1.0000
  C   C54       1.0  0.35113  0.56393  0.43747  1.0000
  C   C55       1.0  0.38026  0.56923  0.43683  1.0000
  C   C56       1.0  0.43467  0.54331  0.27882  1.0000
  C   C57       1.0  0.44982  0.52739  0.27686  1.0000
  C   C58       1.0  0.47134  0.53196  0.34223  1.0000
  C   C59       1.0  0.47570  0.55191  0.41280  1.0000
  C   C60       1.0  0.46005  0.56733  0.41594  1.0000
  H   H34       1.0  0.33457  0.54473  0.22116  1.0000
  H   H35       1.0  0.38473  0.55637  0.21859  1.0000
  H   H36       1.0  0.39283  0.57760  0.49329  1.0000
  H   H37       1.0  0.34369  0.56893  0.49454  1.0000
  H   H38       1.0  0.43265  0.61211  0.20367  1.0000
  H   H39       1.0  0.44466  0.66227  0.19738  1.0000
  H   H40       1.0  0.41988  0.53980  0.22906  1.0000
  H   H41       1.0  0.44485  0.51229  0.22676  1.0000
  H   H42       1.0  0.49082  0.55584  0.46216  1.0000
  H   H43       1.0  0.46400  0.58167  0.46761  1.0000
  H   H44       1.0  0.44646  0.61906  0.48275  1.0000
  H   H45       1.0  0.45778  0.66889  0.47858  1.0000
  N   N12       1.0  0.42918  0.84629  0.35045  1.0000
  C   C61       1.0  0.44267  0.82854  0.35687  1.0000
  C   C62       1.0  0.44542  0.87770  0.34827  1.0000
  C   C63       1.0  0.39790  0.83013  0.34330  1.0000
  C   C64       1.0  0.38452  0.81675  0.26112  1.0000
  C   C65       1.0  0.35499  0.79369  0.25845  1.0000
  C   C66       1.0  0.33786  0.78281  0.33786  1.0000
  C   C67       1.0  0.35111  0.79778  0.41908  1.0000
  C   C68       1.0  0.38057  0.82086  0.42189  1.0000
  C   C69       1.0  0.45210  0.82047  0.27852  1.0000
  C   C70       1.0  0.45830  0.79724  0.27993  1.0000
  C   C71       1.0  0.45461  0.78076  0.35916  1.0000
  C   C72       1.0  0.44516  0.78902  0.43744  1.0000
  C   C73       1.0  0.43986  0.81285  0.43682  1.0000
  C   C74       1.0  0.46570  0.89310  0.27874  1.0000
  C   C75       1.0  0.48161  0.92416  0.27678  1.0000
  C   C76       1.0  0.47705  0.94111  0.34215  1.0000
  C   C77       1.0  0.45711  0.92553  0.41275  1.0000
  C   C78       1.0  0.44168  0.89446  0.41590  1.0000
  H   H46       1.0  0.46415  0.79151  0.22096  1.0000
  H   H47       1.0  0.45253  0.83005  0.21839  1.0000
  H   H48       1.0  0.43155  0.81709  0.49333  1.0000
  H   H49       1.0  0.44021  0.77661  0.49456  1.0000
  H   H50       1.0  0.39685  0.82234  0.20369  1.0000
  H   H51       1.0  0.34668  0.78419  0.19759  1.0000
  H   H52       1.0  0.46921  0.88182  0.22899  1.0000
  H   H53       1.0  0.49672  0.93429  0.22666  1.0000
  H   H54       1.0  0.45318  0.93673  0.46210  1.0000
  H   H55       1.0  0.42735  0.88407  0.46758  1.0000
  H   H56       1.0  0.39004  0.82913  0.48293  1.0000
  H   H57       1.0  0.34022  0.79062  0.47892  1.0000
  N   N13       1.0  0.84724  0.42669  0.34788  1.0000
  C   C79       1.0  0.83042  0.39556  0.35835  1.0000
  C   C80       1.0  0.87853  0.44238  0.34899  1.0000
  C   C81       1.0  0.83057  0.44107  0.33565  1.0000
  C   C82       1.0  0.81393  0.43615  0.25663  1.0000
  C   C83       1.0  0.79073  0.44237  0.25367  1.0000
  C   C84       1.0  0.78311  0.45363  0.32951  1.0000
  C   C85       1.0  0.80151  0.46034  0.40634  1.0000
  C   C86       1.0  0.82474  0.45414  0.40961  1.0000
  C   C87       1.0  0.82744  0.37686  0.28604  1.0000
  C   C88       1.0  0.80529  0.34692  0.28709  1.0000
  C   C89       1.0  0.78543  0.33480  0.36018  1.0000
  C   C90       1.0  0.78909  0.35366  0.43314  1.0000
  C   C91       1.0  0.81159  0.38336  0.43319  1.0000
  C   C92       1.0  0.89474  0.45588  0.27049  1.0000
  C   C93       1.0  0.92582  0.47140  0.27165  1.0000
  C   C94       1.0  0.94197  0.47428  0.35131  1.0000
  C   C95       1.0  0.92526  0.46042  0.42960  1.0000
  C   C96       1.0  0.89417  0.44476  0.42851  1.0000
  H   H58       1.0  0.80291  0.33435  0.23171  1.0000
  H   H59       1.0  0.83994  0.38547  0.22952  1.0000
  H   H60       1.0  0.81241  0.39672  0.48447  1.0000
  H   H61       1.0  0.77421  0.34652  0.48470  1.0000
  H   H62       1.0  0.81702  0.42568  0.20331  1.0000
  H   H63       1.0  0.77841  0.43659  0.19647  1.0000
  H   H64       1.0  0.88392  0.45439  0.21185  1.0000
  H   H65       1.0  0.93656  0.48098  0.21311  1.0000
  H   H66       1.0  0.93548  0.46096  0.48855  1.0000
  H   H67       1.0  0.88291  0.43501  0.48621  1.0000
  H   H68       1.0  0.83563  0.45673  0.46892  1.0000
  H   H69       1.0  0.79708  0.46810  0.46379  1.0000
  N   N14       1.0  0.58225  0.42228  0.34789  1.0000
  C   C97       1.0  0.61338  0.43659  0.35855  1.0000
  C   C98       1.0  0.56655  0.43787  0.34900  1.0000
  C   C99       1.0  0.56789  0.39123  0.33557  1.0000
  C   C100      1.0  0.57285  0.37952  0.25660  1.0000
  C   C101      1.0  0.56664  0.35010  0.25364  1.0000
  C   C102      1.0  0.55536  0.33121  0.32946  1.0000
  C   C103      1.0  0.54862  0.34289  0.40625  1.0000
  C   C104      1.0  0.55479  0.37231  0.40948  1.0000
  C   C105      1.0  0.63212  0.45230  0.28631  1.0000
  C   C106      1.0  0.66204  0.46002  0.28747  1.0000
  C   C107      1.0  0.67412  0.45227  0.36065  1.0000
  C   C108      1.0  0.65522  0.43711  0.43358  1.0000
  C   C109      1.0  0.62553  0.42995  0.43348  1.0000
  C   C110      1.0  0.55311  0.44063  0.27045  1.0000
  C   C111      1.0  0.53759  0.45619  0.27161  1.0000
  C   C112      1.0  0.53467  0.46942  0.35129  1.0000
  C   C113      1.0  0.54847  0.46651  0.42964  1.0000
  C   C114      1.0  0.56413  0.45109  0.42856  1.0000
  H   H70       1.0  0.67463  0.47018  0.23209  1.0000
  H   H71       1.0  0.62354  0.45615  0.22963  1.0000
  H   H72       1.0  0.61214  0.41741  0.48472  1.0000
  H   H73       1.0  0.66230  0.42934  0.48520  1.0000
  H   H74       1.0  0.58334  0.39308  0.20332  1.0000
  H   H75       1.0  0.57245  0.34357  0.19647  1.0000
  H   H76       1.0  0.55464  0.43134  0.21179  1.0000
  H   H77       1.0  0.52805  0.45739  0.21301  1.0000
  H   H78       1.0  0.54792  0.47618  0.48860  1.0000
  H   H79       1.0  0.57385  0.44955  0.48628  1.0000
  H   H80       1.0  0.55216  0.38059  0.46877  1.0000
  H   H81       1.0  0.54081  0.33068  0.46365  1.0000
  N   N15       1.0  0.58673  0.16172  0.34774  1.0000
  C   C115      1.0  0.57242  0.17853  0.35842  1.0000
  C   C116      1.0  0.57113  0.13043  0.34887  1.0000
  C   C117      1.0  0.61778  0.17839  0.33547  1.0000
  C   C118      1.0  0.62947  0.19500  0.25638  1.0000
  C   C119      1.0  0.65888  0.21821  0.25339  1.0000
  C   C120      1.0  0.67778  0.22588  0.32922  1.0000
  C   C121      1.0  0.66610  0.20750  0.40611  1.0000
  C   C122      1.0  0.63670  0.18421  0.40937  1.0000
  C   C123      1.0  0.55670  0.18156  0.28621  1.0000
  C   C124      1.0  0.54896  0.20375  0.28741  1.0000
  C   C125      1.0  0.55673  0.22359  0.36058  1.0000
  C   C126      1.0  0.57189  0.21985  0.43350  1.0000
  C   C127      1.0  0.57907  0.19733  0.43336  1.0000
  C   C128      1.0  0.56836  0.11421  0.27032  1.0000
  C   C129      1.0  0.55281  0.08314  0.27149  1.0000
  C   C130      1.0  0.53959  0.06699  0.35118  1.0000
  C   C131      1.0  0.54248  0.08370  0.42952  1.0000
  C   C132      1.0  0.55792  0.11479  0.42844  1.0000
  H   H82       1.0  0.53882  0.20619  0.23203  1.0000
  H   H83       1.0  0.55284  0.16914  0.22953  1.0000
  H   H84       1.0  0.59161  0.19647  0.48457  1.0000
  H   H85       1.0  0.57968  0.23471  0.48507  1.0000
  H   H86       1.0  0.61588  0.19191  0.20315  1.0000
  H   H87       1.0  0.66542  0.23050  0.19612  1.0000
  H   H88       1.0  0.57765  0.12504  0.21166  1.0000
  H   H89       1.0  0.55161  0.07240  0.21290  1.0000
  H   H90       1.0  0.53284  0.07348  0.48851  1.0000
  H   H91       1.0  0.55946  0.12605  0.48616  1.0000
  H   H92       1.0  0.62839  0.17336  0.46871  1.0000
  H   H93       1.0  0.67832  0.21192  0.46349  1.0000
  N   N16       1.0  0.02151  0.51711  0.41848  1.0000
  C   C133      1.0  0.99173  0.50236  0.42747  1.0000
  H   H94       1.0  0.98306  0.50107  0.48974  1.0000
  N   N17       1.0  0.49180  0.50610  0.41839  1.0000
  C   C134      1.0  0.50655  0.49106  0.42739  1.0000
  H   H95       1.0  0.50778  0.48364  0.48964  1.0000
  N   N18       1.0  0.50291  0.98745  0.41829  1.0000
  C   C135      1.0  0.51795  0.01723  0.42729  1.0000
  H   H96       1.0  0.52537  0.02589  0.48955  1.0000
  C   C136      1.0  0.30501  0.55208  0.35652  1.0000
  C   C137      1.0  0.25230  0.55430  0.33892  1.0000
  N   N19       1.0  0.25832  0.54234  0.41140  1.0000
  C   C138      1.0  0.28300  0.54029  0.42469  1.0000
  C   C139      1.0  0.28478  0.52652  0.50215  1.0000
  O   O7        1.0  0.26758  0.52256  0.56354  1.0000
  O   O8        1.0  0.29157  0.50520  0.49004  1.0000
  C   C140      1.0  0.30683  0.50067  0.56356  1.0000
  C   C141      1.0  0.31793  0.47991  0.53255  1.0000
  H   H97       1.0  0.29189  0.49059  0.62047  1.0000
  H   H98       1.0  0.32581  0.52139  0.58583  1.0000
  H   H99       1.0  0.29941  0.45880  0.51136  1.0000
  H   H100      1.0  0.32939  0.47609  0.58756  1.0000
  H   H101      1.0  0.33316  0.48972  0.47630  1.0000
  C   C142      1.0  0.45688  0.75465  0.35644  1.0000
  C   C143      1.0  0.45469  0.69975  0.33876  1.0000
  N   N20       1.0  0.46673  0.71777  0.41112  1.0000
  C   C144      1.0  0.46876  0.74449  0.42447  1.0000
  C   C145      1.0  0.48267  0.76017  0.50169  1.0000
  O   O9        1.0  0.48618  0.74665  0.56324  1.0000
  O   O10       1.0  0.50380  0.78834  0.49020  1.0000
  C   C146      1.0  0.50828  0.80785  0.56448  1.0000
  C   C147      1.0  0.52890  0.83985  0.53434  1.0000
  H   H102      1.0  0.51845  0.80288  0.62088  1.0000
  H   H103      1.0  0.48752  0.80592  0.58723  1.0000
  H   H104      1.0  0.55004  0.84262  0.51269  1.0000
  H   H105      1.0  0.53267  0.85492  0.58991  1.0000
  H   H106      1.0  0.51899  0.84537  0.47860  1.0000
  C   C148      1.0  0.25439  0.70391  0.35703  1.0000
  C   C149      1.0  0.30927  0.75669  0.33914  1.0000
  N   N21       1.0  0.29139  0.75059  0.41190  1.0000
  C   C150      1.0  0.26469  0.72587  0.42536  1.0000
  C   C151      1.0  0.24920  0.72396  0.50319  1.0000
  O   O11       1.0  0.26287  0.74069  0.56509  1.0000
  O   O12       1.0  0.22138  0.71793  0.49040  1.0000
  C   C152      1.0  0.20128  0.70279  0.56337  1.0000
  C   C153      1.0  0.16965  0.69272  0.53204  1.0000
  H   H107      1.0  0.20645  0.71758  0.62086  1.0000
  H   H108      1.0  0.20229  0.68334  0.58484  1.0000
  H   H109      1.0  0.16778  0.71173  0.51158  1.0000
  H   H110      1.0  0.15414  0.68137  0.58664  1.0000
  H   H111      1.0  0.16392  0.67766  0.47522  1.0000
  C   C154      1.0  0.70311  0.45611  0.35567  1.0000
  C   C155      1.0  0.75675  0.45584  0.33290  1.0000
  N   N22       1.0  0.74871  0.46315  0.41153  1.0000
  C   C156      1.0  0.72356  0.46407  0.42774  1.0000
  C   C157      1.0  0.71975  0.47325  0.51169  1.0000
  O   O13       1.0  0.73540  0.47349  0.57323  1.0000
  O   O14       1.0  0.71372  0.49530  0.51010  1.0000
  C   C158      1.0  0.69611  0.49580  0.58385  1.0000
  C   C159      1.0  0.68673  0.51875  0.56384  1.0000
  H   H112      1.0  0.70892  0.50192  0.64609  1.0000
  H   H113      1.0  0.67622  0.47436  0.59339  1.0000
  H   H114      1.0  0.70614  0.54052  0.55533  1.0000
  H   H115      1.0  0.67354  0.51960  0.61928  1.0000
  H   H116      1.0  0.67359  0.51283  0.50247  1.0000
  C   C160      1.0  0.55288  0.24874  0.35562  1.0000
  C   C161      1.0  0.55314  0.30264  0.33283  1.0000
  N   N23       1.0  0.54586  0.28730  0.41150  1.0000
  C   C162      1.0  0.54495  0.26124  0.42771  1.0000
  C   C163      1.0  0.53578  0.24825  0.51168  1.0000
  O   O15       1.0  0.53556  0.26367  0.57321  1.0000
  O   O16       1.0  0.51373  0.22017  0.51013  1.0000
  C   C164      1.0  0.51325  0.20208  0.58388  1.0000
  C   C165      1.0  0.49029  0.16974  0.56391  1.0000
  H   H117      1.0  0.50714  0.20877  0.64613  1.0000
  H   H118      1.0  0.53469  0.20362  0.59339  1.0000
  H   H119      1.0  0.46852  0.16738  0.55544  1.0000
  H   H120      1.0  0.48945  0.15571  0.61935  1.0000
  H   H121      1.0  0.49620  0.16252  0.50253  1.0000
  C   C166      1.0  0.76033  0.30579  0.35516  1.0000
  C   C167      1.0  0.70636  0.25222  0.33251  1.0000
  N   N24       1.0  0.72182  0.26016  0.41095  1.0000
  C   C168      1.0  0.74793  0.28528  0.42708  1.0000
  C   C169      1.0  0.76099  0.28893  0.51075  1.0000
  O   O17       1.0  0.74603  0.27279  0.57219  1.0000
  O   O18       1.0  0.78933  0.29573  0.50965  1.0000
  C   C170      1.0  0.80708  0.31343  0.58382  1.0000
  C   C171      1.0  0.83966  0.32388  0.56376  1.0000
  H   H122      1.0  0.80070  0.30041  0.64565  1.0000
  H   H123      1.0  0.80477  0.33287  0.59414  1.0000
  H   H124      1.0  0.84277  0.30495  0.55452  1.0000
  H   H125      1.0  0.85343  0.33715  0.61950  1.0000
  H   H126      1.0  0.84656  0.33724  0.50278  1.0000
