data_image0
_chemical_formula_structural       C3NCOC7H3NO2C7H3NO2C8H3NO2C2HC2H2NO2C2HC2H2NO2C2HC2H2NO2CN2CNCNCNCNCNCNCNCNCNC2HC2H2NOC2HC2H2NO2C2HC2H2NO2C8H3NO2C8H3NO2C8H3NO2
_chemical_formula_sum              "C84 N24 O24 H36"
_cell_length_a       34.0333
_cell_length_b       34.0356
_cell_length_c       14.7999
_cell_angle_alpha    90
_cell_angle_beta     90
_cell_angle_gamma    120.007

_space_group_name_H-M_alt    "P 1"
_space_group_IT_number       1

loop_
  _space_group_symop_operation_xyz
  'x, y, z'

loop_
  _atom_site_type_symbol
  _atom_site_label
  _atom_site_symmetry_multiplicity
  _atom_site_fract_x
  _atom_site_fract_y
  _atom_site_fract_z
  _atom_site_occupancy
  C   C1        1.0  0.10106  0.05291  0.34568  1.0000
  C   C2        1.0  0.95888  0.05158  0.34570  1.0000
  C   C3        1.0  0.98318  0.02793  0.34524  1.0000
  N   N1        1.0  0.02936  0.05103  0.34529  1.0000
  C   C4        1.0  0.05311  0.02862  0.34521  1.0000
  O   O1        1.0  0.25250  0.02987  0.36425  1.0000
  C   C5        1.0  0.34424  0.17019  0.35308  1.0000
  C   C6        1.0  0.32039  0.19186  0.32256  1.0000
  C   C7        1.0  0.27257  0.16891  0.32054  1.0000
  C   C8        1.0  0.24655  0.12350  0.35040  1.0000
  C   C9        1.0  0.19805  0.10093  0.34685  1.0000
  C   C10       1.0  0.17400  0.08754  0.26366  1.0000
  C   C11       1.0  0.12581  0.06366  0.26410  1.0000
  H   H1        1.0  0.10873  0.05382  0.20392  1.0000
  H   H2        1.0  0.33766  0.22456  0.29954  1.0000
  H   H3        1.0  0.25678  0.18580  0.29719  1.0000
  N   N2        1.0  0.19862  0.09728  0.18170  1.0000
  O   O2        1.0  0.19029  0.12179  0.13087  1.0000
  O   O3        1.0  0.18963  0.06159  0.13995  1.0000
  C   C12       1.0  0.84163  0.17747  0.35301  1.0000
  C   C13       1.0  0.81995  0.13194  0.32252  1.0000
  C   C14       1.0  0.84290  0.10708  0.32051  1.0000
  C   C15       1.0  0.88831  0.12648  0.35039  1.0000
  C   C16       1.0  0.91088  0.10056  0.34686  1.0000
  C   C17       1.0  0.92428  0.08991  0.26366  1.0000
  C   C18       1.0  0.94816  0.06559  0.26412  1.0000
  H   H4        1.0  0.95801  0.05837  0.20394  1.0000
  H   H5        1.0  0.78725  0.11650  0.29948  1.0000
  H   H6        1.0  0.82601  0.07439  0.29717  1.0000
  N   N3        1.0  0.91456  0.10480  0.18170  1.0000
  O   O4        1.0  0.89006  0.07196  0.13085  1.0000
  O   O5        1.0  0.95026  0.13151  0.13998  1.0000
  C   C19       1.0  0.83434  0.66757  0.35302  1.0000
  C   C20       1.0  0.87987  0.69145  0.32255  1.0000
  C   C21       1.0  0.90473  0.73926  0.32055  1.0000
  C   C22       1.0  0.88532  0.76526  0.35041  1.0000
  C   C23       1.0  0.91123  0.81375  0.34688  1.0000
  C   C24       1.0  0.92193  0.83780  0.26368  1.0000
  C   C25       1.0  0.94624  0.88599  0.26412  1.0000
  C   C26       1.0  0.96021  0.91075  0.34571  1.0000
  H   H7        1.0  0.95349  0.90307  0.20395  1.0000
  H   H8        1.0  0.89532  0.67420  0.29950  1.0000
  H   H9        1.0  0.93742  0.75507  0.29722  1.0000
  N   N4        1.0  0.90708  0.81319  0.18171  1.0000
  O   O6        1.0  0.93994  0.82153  0.13093  1.0000
  O   O7        1.0  0.88038  0.82217  0.13991  1.0000
  C   C27       1.0  0.64187  0.20603  0.29286  1.0000
  C   C28       1.0  0.68788  0.21743  0.28950  1.0000
  H   H10       1.0  0.71038  0.24705  0.25793  1.0000
  C   C29       1.0  0.49666  0.15149  0.28500  1.0000
  C   C30       1.0  0.53541  0.14678  0.27972  1.0000
  H   H11       1.0  0.47896  0.14839  0.22693  1.0000
  H   H12       1.0  0.54418  0.13975  0.21814  1.0000
  N   N5        1.0  0.62800  0.23558  0.25559  1.0000
  O   O8        1.0  0.63549  0.24086  0.17208  1.0000
  O   O9        1.0  0.64767  0.27386  0.29308  1.0000
  C   C31       1.0  0.80580  0.43928  0.29272  1.0000
  C   C32       1.0  0.79439  0.47388  0.28935  1.0000
  H   H13       1.0  0.76477  0.46675  0.25776  1.0000
  C   C33       1.0  0.86039  0.34866  0.28492  1.0000
  C   C34       1.0  0.86511  0.39213  0.27966  1.0000
  H   H14       1.0  0.86355  0.33412  0.22684  1.0000
  H   H15       1.0  0.87220  0.40796  0.21812  1.0000
  N   N6        1.0  0.77627  0.39586  0.25539  1.0000
  O   O10       1.0  0.77102  0.39809  0.17187  1.0000
  O   O11       1.0  0.73797  0.37722  0.29281  1.0000
  C   C35       1.0  0.57260  0.36993  0.29289  1.0000
  C   C36       1.0  0.53800  0.32391  0.28958  1.0000
  H   H16       1.0  0.54514  0.30141  0.25810  1.0000
  C   C37       1.0  0.66318  0.51516  0.28466  1.0000
  C   C38       1.0  0.61972  0.47638  0.27950  1.0000
  H   H17       1.0  0.67774  0.53284  0.22656  1.0000
  H   H18       1.0  0.60388  0.46758  0.21796  1.0000
  N   N7        1.0  0.61603  0.38381  0.25563  1.0000
  O   O12       1.0  0.61382  0.37628  0.17213  1.0000
  O   O13       1.0  0.63466  0.36418  0.29318  1.0000
  C   C39       1.0  0.98385  0.95868  0.34525  1.0000
  N   N8        1.0  0.96076  0.98177  0.34532  1.0000
  N   N9        1.0  0.03002  0.98244  0.34529  1.0000
  C   C40       1.0  0.46542  0.26038  0.34144  1.0000
  N   N10       1.0  0.41916  0.23902  0.34390  1.0000
  C   C41       1.0  0.39289  0.19282  0.35269  1.0000
  N   N11       1.0  0.41465  0.16831  0.35990  1.0000
  C   C42       1.0  0.46061  0.18869  0.35982  1.0000
  N   N12       1.0  0.48474  0.23416  0.35019  1.0000
  C   C43       1.0  0.75143  0.20842  0.34139  1.0000
  N   N13       1.0  0.77279  0.18353  0.34384  1.0000
  C   C44       1.0  0.81900  0.20348  0.35261  1.0000
  N   N14       1.0  0.84351  0.24977  0.35977  1.0000
  C   C45       1.0  0.82311  0.27533  0.35966  1.0000
  N   N15       1.0  0.77764  0.25396  0.35007  1.0000
  C   C46       1.0  0.80337  0.54642  0.34127  1.0000
  N   N16       1.0  0.82827  0.59268  0.34379  1.0000
  C   C47       1.0  0.80832  0.61893  0.35256  1.0000
  N   N17       1.0  0.76203  0.59715  0.35966  1.0000
  C   C48       1.0  0.73646  0.55119  0.35939  1.0000
  N   N18       1.0  0.75782  0.52708  0.34985  1.0000
  C   C49       1.0  0.26966  0.10121  0.38233  1.0000
  C   C50       1.0  0.31780  0.12463  0.38275  1.0000
  H   H19       1.0  0.33354  0.10768  0.40588  1.0000
  C   C51       1.0  0.12522  0.06642  0.42787  1.0000
  C   C52       1.0  0.17302  0.08995  0.42839  1.0000
  H   H20       1.0  0.10821  0.05892  0.48812  1.0000
  H   H21       1.0  0.18950  0.09903  0.48924  1.0000
  N   N19       1.0  0.24419  0.05553  0.41148  1.0000
  O   O14       1.0  0.25215  0.05152  0.49285  1.0000
  C   C53       1.0  0.91060  0.17188  0.38231  1.0000
  C   C54       1.0  0.88718  0.19660  0.38271  1.0000
  H   H22       1.0  0.90414  0.22930  0.40584  1.0000
  C   C55       1.0  0.94536  0.06222  0.42789  1.0000
  C   C56       1.0  0.92184  0.08649  0.42840  1.0000
  H   H23       1.0  0.95285  0.05270  0.48814  1.0000
  H   H24       1.0  0.91276  0.09389  0.48925  1.0000
  N   N20       1.0  0.95628  0.19209  0.41149  1.0000
  O   O15       1.0  0.96028  0.20407  0.49285  1.0000
  O   O16       1.0  0.98195  0.22607  0.36426  1.0000
  C   C57       1.0  0.83991  0.74212  0.38232  1.0000
  C   C58       1.0  0.81520  0.69399  0.38271  1.0000
  H   H25       1.0  0.78249  0.67823  0.40582  1.0000
  C   C59       1.0  0.94951  0.88658  0.42791  1.0000
  C   C60       1.0  0.92525  0.83879  0.42842  1.0000
  H   H26       1.0  0.95900  0.90359  0.48817  1.0000
  H   H27       1.0  0.91782  0.82230  0.48927  1.0000
  N   N21       1.0  0.81968  0.76757  0.41148  1.0000
  O   O17       1.0  0.80770  0.75959  0.49283  1.0000
  O   O18       1.0  0.78571  0.75925  0.36423  1.0000
  C   C61       1.0  0.70382  0.19086  0.33257  1.0000
  C   C62       1.0  0.67152  0.15042  0.37563  1.0000
  C   C63       1.0  0.62542  0.13850  0.37972  1.0000
  C   C64       1.0  0.61010  0.16607  0.33906  1.0000
  C   C65       1.0  0.56514  0.15767  0.35428  1.0000
  C   C66       1.0  0.55409  0.17128  0.43668  1.0000
  C   C67       1.0  0.51468  0.17536  0.44126  1.0000
  C   C68       1.0  0.48622  0.16659  0.36549  1.0000
  H   H28       1.0  0.50934  0.18921  0.49814  1.0000
  H   H29       1.0  0.68180  0.13111  0.41025  1.0000
  H   H30       1.0  0.60332  0.11039  0.41584  1.0000
  N   N22       1.0  0.58478  0.18482  0.51028  1.0000
  O   O19       1.0  0.56606  0.16143  0.57940  1.0000
  O   O20       1.0  0.60059  0.22600  0.52946  1.0000
  C   C69       1.0  0.82093  0.51638  0.33248  1.0000
  C   C70       1.0  0.86137  0.52453  0.37559  1.0000
  C   C71       1.0  0.87329  0.49035  0.37969  1.0000
  C   C72       1.0  0.84574  0.44747  0.33898  1.0000
  C   C73       1.0  0.85415  0.41091  0.35419  1.0000
  C   C74       1.0  0.84045  0.38620  0.43652  1.0000
  C   C75       1.0  0.83638  0.34271  0.44102  1.0000
  C   C76       1.0  0.84520  0.32302  0.36528  1.0000
  H   H31       1.0  0.82248  0.32349  0.49785  1.0000
  H   H32       1.0  0.88066  0.55411  0.41025  1.0000
  H   H33       1.0  0.90140  0.49637  0.41585  1.0000
  N   N23       1.0  0.82686  0.40331  0.51010  1.0000
  O   O21       1.0  0.85018  0.40793  0.57929  1.0000
  O   O22       1.0  0.78565  0.37790  0.52912  1.0000
  C   C77       1.0  0.49549  0.30798  0.33265  1.0000
  C   C78       1.0  0.48731  0.34028  0.37557  1.0000
  C   C79       1.0  0.52149  0.38639  0.37960  1.0000
  C   C80       1.0  0.56438  0.40170  0.33899  1.0000
  C   C81       1.0  0.60094  0.44668  0.35412  1.0000
  C   C82       1.0  0.62567  0.45776  0.43646  1.0000
  C   C83       1.0  0.66915  0.49718  0.44095  1.0000
  C   C84       1.0  0.68874  0.52560  0.36509  1.0000
  H   H34       1.0  0.68839  0.50255  0.49777  1.0000
  H   H35       1.0  0.45770  0.33001  0.41013  1.0000
  H   H36       1.0  0.51545  0.40849  0.41564  1.0000
  N   N24       1.0  0.60856  0.42707  0.51009  1.0000
  O   O23       1.0  0.60392  0.44580  0.57923  1.0000
  O   O24       1.0  0.63396  0.41129  0.52918  1.0000
