data_image0
_chemical_formula_structural       C2NC2HNHNC2HNHNC2HNHNCNCNC3O3NCNCNC3O3CNC3H3ONHCNC3H3ONHCNC3H3ONHC2NC2HNHNC2HNHNC2HNHNCNCNC3O3NCNCNC3O3CNC3H3ONHCNC3H3ONHCNC3H3ONHC2NC2HNHNC2HNHNC2HNHNCNCNC3O3NCNCNC3O3CNC3H3ONHCNC3H3ONHCNC3H3ONHC2NC2HNHNC2HNHNC2HNHNCNCNC3O3NCNCNC3O3CNC3H3ONHCNC3H3ONHCNC3H3ONH
_chemical_formula_sum              "C120 N72 H72 O36"
_cell_length_a       43.17
_cell_length_b       43.17
_cell_length_c       15.0496
_cell_angle_alpha    90
_cell_angle_beta     90
_cell_angle_gamma    120

_space_group_name_H-M_alt    "P 1"
_space_group_IT_number       1

loop_
  _space_group_symop_operation_xyz
  'x, y, z'

loop_
  _atom_site_type_symbol
  _atom_site_label
  _atom_site_symmetry_multiplicity
  _atom_site_fract_x
  _atom_site_fract_y
  _atom_site_fract_z
  _atom_site_occupancy
  C   C1        1.0  0.12835  0.32056  0.26471  1.0000
  C   C2        1.0  0.36680  0.17640  0.43232  1.0000
  N   N1        1.0  0.28173  0.25967  0.35482  1.0000
  C   C3        1.0  0.27071  0.28150  0.32034  1.0000
  C   C4        1.0  0.23376  0.26938  0.31566  1.0000
  H   H1        1.0  0.28931  0.30623  0.29761  1.0000
  N   N2        1.0  0.22125  0.29069  0.28437  1.0000
  H   H2        1.0  0.23921  0.31530  0.27015  1.0000
  N   N3        1.0  0.23626  0.02125  0.35467  1.0000
  C   C5        1.0  0.21442  0.48840  0.32022  1.0000
  C   C6        1.0  0.22653  0.46356  0.31560  1.0000
  H   H3        1.0  0.18971  0.48230  0.29740  1.0000
  N   N4        1.0  0.20521  0.42975  0.28431  1.0000
  H   H4        1.0  0.18061  0.42310  0.27006  1.0000
  N   N5        1.0  0.47466  0.21418  0.35478  1.0000
  C   C7        1.0  0.00750  0.22518  0.32022  1.0000
  C   C8        1.0  0.03234  0.26213  0.31552  1.0000
  H   H5        1.0  0.01359  0.20658  0.29735  1.0000
  N   N6        1.0  0.06614  0.27463  0.28420  1.0000
  H   H6        1.0  0.07279  0.25667  0.26990  1.0000
  N   N7        1.0  0.15330  0.35589  0.26542  1.0000
  C   C9        1.0  0.18891  0.36753  0.26482  1.0000
  N   N8        1.0  0.19930  0.34259  0.26551  1.0000
  C   C10       1.0  0.17533  0.30697  0.26478  1.0000
  N   N9        1.0  0.14000  0.29660  0.26541  1.0000
  C   C11       1.0  0.21445  0.40392  0.27568  1.0000
  C   C12       1.0  0.18618  0.28144  0.27567  1.0000
  C   C13       1.0  0.09196  0.30970  0.27546  1.0000
  O   O1        1.0  0.15980  0.24685  0.28383  1.0000
  O   O2        1.0  0.08377  0.33608  0.28380  1.0000
  O   O3        1.0  0.24904  0.41212  0.28390  1.0000
  N   N10       1.0  0.34201  0.14102  0.43163  1.0000
  C   C14       1.0  0.30633  0.12913  0.43219  1.0000
  N   N11       1.0  0.29575  0.15392  0.43161  1.0000
  C   C15       1.0  0.31954  0.18960  0.43229  1.0000
  N   N12       1.0  0.35491  0.20019  0.43172  1.0000
  C   C16       1.0  0.28096  0.09259  0.42278  1.0000
  C   C17       1.0  0.30837  0.21498  0.42296  1.0000
  C   C18       1.0  0.40334  0.18754  0.42300  1.0000
  O   O4        1.0  0.33452  0.24966  0.41488  1.0000
  O   O5        1.0  0.41186  0.16139  0.41484  1.0000
  O   O6        1.0  0.24628  0.08406  0.41472  1.0000
  C   C19       1.0  0.25960  0.22628  0.38760  1.0000
  N   N13       1.0  0.21165  0.23625  0.34925  1.0000
  C   C20       1.0  0.22231  0.21408  0.38436  1.0000
  C   C21       1.0  0.19641  0.18175  0.41963  1.0000
  C   C22       1.0  0.18751  0.18126  0.51265  1.0000
  H   H7        1.0  0.17069  0.15373  0.53525  1.0000
  H   H8        1.0  0.17305  0.19575  0.52285  1.0000
  H   H9        1.0  0.21163  0.19351  0.55362  1.0000
  O   O7        1.0  0.17130  0.16356  0.36996  1.0000
  N   N14       1.0  0.27315  0.20544  0.41646  1.0000
  H   H10       1.0  0.25583  0.18065  0.43017  1.0000
  C   C23       1.0  0.26964  0.03251  0.38751  1.0000
  N   N15       1.0  0.25965  0.47457  0.34925  1.0000
  C   C24       1.0  0.28182  0.00740  0.38435  1.0000
  C   C25       1.0  0.31414  0.01382  0.41971  1.0000
  C   C26       1.0  0.31460  0.00543  0.51275  1.0000
  H   H11       1.0  0.34212  0.01613  0.53540  1.0000
  H   H12       1.0  0.30009  0.97648  0.52301  1.0000
  H   H13       1.0  0.30236  0.01733  0.55365  1.0000
  O   O8        1.0  0.33232  0.50686  0.37012  1.0000
  N   N16       1.0  0.29050  0.06691  0.41634  1.0000
  H   H14       1.0  0.31528  0.07436  0.43009  1.0000
  C   C27       1.0  0.46343  0.23631  0.38769  1.0000
  N   N17       1.0  0.02135  0.28424  0.34933  1.0000
  C   C28       1.0  0.48855  0.27359  0.38456  1.0000
  C   C29       1.0  0.48219  0.29947  0.42001  1.0000
  C   C30       1.0  0.49009  0.30815  0.51336  1.0000
  H   H15       1.0  0.47920  0.32484  0.53574  1.0000
  H   H16       1.0  0.51899  0.32261  0.52453  1.0000
  H   H17       1.0  0.47805  0.28391  0.55388  1.0000
  O   O9        1.0  0.98964  0.32510  0.37170  1.0000
  N   N18       1.0  0.42904  0.22276  0.41660  1.0000
  H   H18       1.0  0.42159  0.24010  0.43035  1.0000
  C   C31       1.0  0.12835  0.82057  0.26471  1.0000
  C   C32       1.0  0.36680  0.67640  0.43232  1.0000
  N   N19       1.0  0.28173  0.75967  0.35482  1.0000
  C   C33       1.0  0.27071  0.78151  0.32034  1.0000
  C   C34       1.0  0.23376  0.76938  0.31566  1.0000
  H   H19       1.0  0.28931  0.80623  0.29761  1.0000
  N   N20       1.0  0.22125  0.79069  0.28437  1.0000
  H   H20       1.0  0.23921  0.81530  0.27015  1.0000
  N   N21       1.0  0.23626  0.52126  0.35467  1.0000
  C   C35       1.0  0.21442  0.98840  0.32022  1.0000
  C   C36       1.0  0.22653  0.96356  0.31560  1.0000
  H   H21       1.0  0.18971  0.98230  0.29740  1.0000
  N   N22       1.0  0.20521  0.92975  0.28431  1.0000
  H   H22       1.0  0.18061  0.92310  0.27006  1.0000
  N   N23       1.0  0.47466  0.71418  0.35478  1.0000
  C   C37       1.0  0.00750  0.72519  0.32022  1.0000
  C   C38       1.0  0.03234  0.76213  0.31552  1.0000
  H   H23       1.0  0.01360  0.70658  0.29735  1.0000
  N   N24       1.0  0.06614  0.77463  0.28420  1.0000
  H   H24       1.0  0.07279  0.75668  0.26990  1.0000
  N   N25       1.0  0.15330  0.85589  0.26542  1.0000
  C   C39       1.0  0.18892  0.86753  0.26482  1.0000
  N   N26       1.0  0.19930  0.84259  0.26551  1.0000
  C   C40       1.0  0.17533  0.80698  0.26478  1.0000
  N   N27       1.0  0.14000  0.79660  0.26541  1.0000
  C   C41       1.0  0.21445  0.90392  0.27568  1.0000
  C   C42       1.0  0.18619  0.78144  0.27567  1.0000
  C   C43       1.0  0.09196  0.80970  0.27546  1.0000
  O   O10       1.0  0.15980  0.74686  0.28383  1.0000
  O   O11       1.0  0.08376  0.83608  0.28380  1.0000
  O   O12       1.0  0.24904  0.91212  0.28390  1.0000
  N   N28       1.0  0.34201  0.64102  0.43163  1.0000
  C   C44       1.0  0.30633  0.62913  0.43219  1.0000
  N   N29       1.0  0.29575  0.65392  0.43161  1.0000
  C   C45       1.0  0.31954  0.68960  0.43229  1.0000
  N   N30       1.0  0.35491  0.70019  0.43172  1.0000
  C   C46       1.0  0.28096  0.59259  0.42278  1.0000
  C   C47       1.0  0.30838  0.71498  0.42296  1.0000
  C   C48       1.0  0.40335  0.68755  0.42300  1.0000
  O   O13       1.0  0.33452  0.74966  0.41488  1.0000
  O   O14       1.0  0.41186  0.66139  0.41484  1.0000
  O   O15       1.0  0.24628  0.58406  0.41472  1.0000
  C   C49       1.0  0.25960  0.72628  0.38760  1.0000
  N   N31       1.0  0.21165  0.73625  0.34925  1.0000
  C   C50       1.0  0.22231  0.71408  0.38436  1.0000
  C   C51       1.0  0.19641  0.68175  0.41963  1.0000
  C   C52       1.0  0.18751  0.68126  0.51265  1.0000
  H   H25       1.0  0.17069  0.65373  0.53525  1.0000
  H   H26       1.0  0.17305  0.69575  0.52285  1.0000
  H   H27       1.0  0.21163  0.69351  0.55362  1.0000
  O   O16       1.0  0.17130  0.66356  0.36996  1.0000
  N   N32       1.0  0.27315  0.70544  0.41646  1.0000
  H   H28       1.0  0.25583  0.68065  0.43017  1.0000
  C   C53       1.0  0.26964  0.53251  0.38751  1.0000
  N   N33       1.0  0.25965  0.97457  0.34925  1.0000
  C   C54       1.0  0.28182  0.50740  0.38435  1.0000
  C   C55       1.0  0.31414  0.51382  0.41971  1.0000
  C   C56       1.0  0.31460  0.50543  0.51275  1.0000
  H   H29       1.0  0.34212  0.51613  0.53540  1.0000
  H   H30       1.0  0.30009  0.47648  0.52301  1.0000
  H   H31       1.0  0.30236  0.51733  0.55365  1.0000
  O   O17       1.0  0.33232  0.00686  0.37012  1.0000
  N   N34       1.0  0.29050  0.56691  0.41634  1.0000
  H   H32       1.0  0.31528  0.57436  0.43009  1.0000
  C   C57       1.0  0.46343  0.73631  0.38769  1.0000
  N   N35       1.0  0.02135  0.78424  0.34933  1.0000
  C   C58       1.0  0.48855  0.77359  0.38456  1.0000
  C   C59       1.0  0.48219  0.79947  0.42001  1.0000
  C   C60       1.0  0.49009  0.80815  0.51336  1.0000
  H   H33       1.0  0.47920  0.82485  0.53574  1.0000
  H   H34       1.0  0.51899  0.82261  0.52453  1.0000
  H   H35       1.0  0.47805  0.78391  0.55388  1.0000
  O   O18       1.0  0.98964  0.82510  0.37170  1.0000
  N   N36       1.0  0.42904  0.72276  0.41660  1.0000
  H   H36       1.0  0.42159  0.74010  0.43035  1.0000
  C   C61       1.0  0.62835  0.32056  0.26471  1.0000
  C   C62       1.0  0.86680  0.17640  0.43232  1.0000
  N   N37       1.0  0.78173  0.25967  0.35482  1.0000
  C   C63       1.0  0.77071  0.28150  0.32034  1.0000
  C   C64       1.0  0.73376  0.26938  0.31566  1.0000
  H   H37       1.0  0.78931  0.30623  0.29761  1.0000
  N   N38       1.0  0.72125  0.29069  0.28437  1.0000
  H   H38       1.0  0.73921  0.31530  0.27015  1.0000
  N   N39       1.0  0.73626  0.02125  0.35467  1.0000
  C   C65       1.0  0.71442  0.48840  0.32022  1.0000
  C   C66       1.0  0.72653  0.46356  0.31560  1.0000
  H   H39       1.0  0.68971  0.48230  0.29740  1.0000
  N   N40       1.0  0.70521  0.42975  0.28431  1.0000
  H   H40       1.0  0.68061  0.42310  0.27006  1.0000
  N   N41       1.0  0.97466  0.21418  0.35478  1.0000
  C   C67       1.0  0.50750  0.22518  0.32022  1.0000
  C   C68       1.0  0.53234  0.26213  0.31552  1.0000
  H   H41       1.0  0.51359  0.20658  0.29735  1.0000
  N   N42       1.0  0.56614  0.27463  0.28420  1.0000
  H   H42       1.0  0.57279  0.25667  0.26990  1.0000
  N   N43       1.0  0.65330  0.35589  0.26542  1.0000
  C   C69       1.0  0.68892  0.36753  0.26482  1.0000
  N   N44       1.0  0.69930  0.34259  0.26551  1.0000
  C   C70       1.0  0.67533  0.30697  0.26478  1.0000
  N   N45       1.0  0.64000  0.29660  0.26541  1.0000
  C   C71       1.0  0.71445  0.40392  0.27568  1.0000
  C   C72       1.0  0.68619  0.28144  0.27567  1.0000
  C   C73       1.0  0.59196  0.30970  0.27546  1.0000
  O   O19       1.0  0.65980  0.24685  0.28383  1.0000
  O   O20       1.0  0.58377  0.33608  0.28380  1.0000
  O   O21       1.0  0.74904  0.41212  0.28390  1.0000
  N   N46       1.0  0.84201  0.14102  0.43163  1.0000
  C   C74       1.0  0.80633  0.12913  0.43219  1.0000
  N   N47       1.0  0.79575  0.15392  0.43161  1.0000
  C   C75       1.0  0.81954  0.18960  0.43229  1.0000
  N   N48       1.0  0.85491  0.20019  0.43172  1.0000
  C   C76       1.0  0.78096  0.09259  0.42278  1.0000
  C   C77       1.0  0.80837  0.21498  0.42296  1.0000
  C   C78       1.0  0.90334  0.18754  0.42300  1.0000
  O   O22       1.0  0.83452  0.24966  0.41488  1.0000
  O   O23       1.0  0.91186  0.16139  0.41484  1.0000
  O   O24       1.0  0.74628  0.08406  0.41472  1.0000
  C   C79       1.0  0.75960  0.22628  0.38760  1.0000
  N   N49       1.0  0.71164  0.23625  0.34925  1.0000
  C   C80       1.0  0.72231  0.21408  0.38436  1.0000
  C   C81       1.0  0.69641  0.18175  0.41963  1.0000
  C   C82       1.0  0.68751  0.18126  0.51265  1.0000
  H   H43       1.0  0.67069  0.15373  0.53525  1.0000
  H   H44       1.0  0.67305  0.19575  0.52285  1.0000
  H   H45       1.0  0.71163  0.19351  0.55362  1.0000
  O   O25       1.0  0.67130  0.16356  0.36996  1.0000
  N   N50       1.0  0.77315  0.20544  0.41646  1.0000
  H   H46       1.0  0.75582  0.18065  0.43017  1.0000
  C   C83       1.0  0.76964  0.03251  0.38751  1.0000
  N   N51       1.0  0.75965  0.47457  0.34925  1.0000
  C   C84       1.0  0.78182  0.00740  0.38435  1.0000
  C   C85       1.0  0.81414  0.01382  0.41971  1.0000
  C   C86       1.0  0.81460  0.00543  0.51275  1.0000
  H   H47       1.0  0.84212  0.01613  0.53540  1.0000
  H   H48       1.0  0.80009  0.97648  0.52301  1.0000
  H   H49       1.0  0.80236  0.01733  0.55365  1.0000
  O   O26       1.0  0.83232  0.50686  0.37012  1.0000
  N   N52       1.0  0.79049  0.06691  0.41634  1.0000
  H   H50       1.0  0.81528  0.07436  0.43009  1.0000
  C   C87       1.0  0.96343  0.23631  0.38769  1.0000
  N   N53       1.0  0.52135  0.28424  0.34933  1.0000
  C   C88       1.0  0.98855  0.27359  0.38456  1.0000
  C   C89       1.0  0.98219  0.29947  0.42001  1.0000
  C   C90       1.0  0.99009  0.30815  0.51336  1.0000
  H   H51       1.0  0.97920  0.32484  0.53574  1.0000
  H   H52       1.0  0.01899  0.32261  0.52453  1.0000
  H   H53       1.0  0.97805  0.28391  0.55388  1.0000
  O   O27       1.0  0.48964  0.32510  0.37170  1.0000
  N   N54       1.0  0.92904  0.22276  0.41660  1.0000
  H   H54       1.0  0.92159  0.24010  0.43035  1.0000
  C   C91       1.0  0.62835  0.82057  0.26471  1.0000
  C   C92       1.0  0.86680  0.67640  0.43232  1.0000
  N   N55       1.0  0.78173  0.75967  0.35482  1.0000
  C   C93       1.0  0.77071  0.78151  0.32034  1.0000
  C   C94       1.0  0.73376  0.76938  0.31566  1.0000
  H   H55       1.0  0.78931  0.80623  0.29761  1.0000
  N   N56       1.0  0.72125  0.79069  0.28437  1.0000
  H   H56       1.0  0.73921  0.81530  0.27015  1.0000
  N   N57       1.0  0.73626  0.52126  0.35467  1.0000
  C   C95       1.0  0.71442  0.98840  0.32022  1.0000
  C   C96       1.0  0.72653  0.96356  0.31560  1.0000
  H   H57       1.0  0.68971  0.98230  0.29740  1.0000
  N   N58       1.0  0.70521  0.92975  0.28431  1.0000
  H   H58       1.0  0.68061  0.92310  0.27006  1.0000
  N   N59       1.0  0.97466  0.71418  0.35478  1.0000
  C   C97       1.0  0.50750  0.72519  0.32022  1.0000
  C   C98       1.0  0.53234  0.76213  0.31552  1.0000
  H   H59       1.0  0.51360  0.70658  0.29735  1.0000
  N   N60       1.0  0.56614  0.77463  0.28420  1.0000
  H   H60       1.0  0.57279  0.75668  0.26990  1.0000
  N   N61       1.0  0.65330  0.85589  0.26542  1.0000
  C   C99       1.0  0.68892  0.86753  0.26482  1.0000
  N   N62       1.0  0.69930  0.84259  0.26551  1.0000
  C   C100      1.0  0.67533  0.80698  0.26478  1.0000
  N   N63       1.0  0.64000  0.79660  0.26541  1.0000
  C   C101      1.0  0.71445  0.90392  0.27568  1.0000
  C   C102      1.0  0.68619  0.78144  0.27567  1.0000
  C   C103      1.0  0.59196  0.80970  0.27546  1.0000
  O   O28       1.0  0.65980  0.74686  0.28383  1.0000
  O   O29       1.0  0.58377  0.83608  0.28380  1.0000
  O   O30       1.0  0.74904  0.91212  0.28390  1.0000
  N   N64       1.0  0.84201  0.64102  0.43163  1.0000
  C   C104      1.0  0.80633  0.62913  0.43219  1.0000
  N   N65       1.0  0.79575  0.65392  0.43161  1.0000
  C   C105      1.0  0.81954  0.68960  0.43229  1.0000
  N   N66       1.0  0.85491  0.70019  0.43172  1.0000
  C   C106      1.0  0.78096  0.59259  0.42278  1.0000
  C   C107      1.0  0.80838  0.71498  0.42296  1.0000
  C   C108      1.0  0.90335  0.68755  0.42300  1.0000
  O   O31       1.0  0.83452  0.74966  0.41488  1.0000
  O   O32       1.0  0.91186  0.66139  0.41484  1.0000
  O   O33       1.0  0.74628  0.58406  0.41472  1.0000
  C   C109      1.0  0.75960  0.72628  0.38760  1.0000
  N   N67       1.0  0.71164  0.73625  0.34925  1.0000
  C   C110      1.0  0.72231  0.71408  0.38436  1.0000
  C   C111      1.0  0.69641  0.68175  0.41963  1.0000
  C   C112      1.0  0.68751  0.68126  0.51265  1.0000
  H   H61       1.0  0.67069  0.65373  0.53525  1.0000
  H   H62       1.0  0.67304  0.69575  0.52285  1.0000
  H   H63       1.0  0.71163  0.69351  0.55362  1.0000
  O   O34       1.0  0.67130  0.66356  0.36996  1.0000
  N   N68       1.0  0.77315  0.70544  0.41646  1.0000
  H   H64       1.0  0.75583  0.68065  0.43017  1.0000
  C   C113      1.0  0.76964  0.53251  0.38751  1.0000
  N   N69       1.0  0.75965  0.97457  0.34925  1.0000
  C   C114      1.0  0.78182  0.50740  0.38435  1.0000
  C   C115      1.0  0.81414  0.51382  0.41971  1.0000
  C   C116      1.0  0.81460  0.50543  0.51275  1.0000
  H   H65       1.0  0.84212  0.51613  0.53540  1.0000
  H   H66       1.0  0.80009  0.47648  0.52301  1.0000
  H   H67       1.0  0.80236  0.51733  0.55365  1.0000
  O   O35       1.0  0.83232  0.00686  0.37012  1.0000
  N   N70       1.0  0.79049  0.56691  0.41634  1.0000
  H   H68       1.0  0.81528  0.57436  0.43009  1.0000
  C   C117      1.0  0.96343  0.73631  0.38769  1.0000
  N   N71       1.0  0.52135  0.78424  0.34933  1.0000
  C   C118      1.0  0.98855  0.77359  0.38456  1.0000
  C   C119      1.0  0.98219  0.79947  0.42001  1.0000
  C   C120      1.0  0.99009  0.80815  0.51336  1.0000
  H   H69       1.0  0.97920  0.82485  0.53574  1.0000
  H   H70       1.0  0.01899  0.82261  0.52453  1.0000
  H   H71       1.0  0.97805  0.78391  0.55388  1.0000
  O   O36       1.0  0.48964  0.82510  0.37170  1.0000
  N   N72       1.0  0.92904  0.72276  0.41660  1.0000
  H   H72       1.0  0.92159  0.74010  0.43035  1.0000
