data_image0
_chemical_formula_structural       C2NC2H3CH3CH3C2NC2H3CH3CH3C2NC2H3CH3CH3C2NC2H3CH3CH3C2NC2H3CH3CH3C2NC2H3CH3CH3CNCHOHCNCHOHCNCHOHCNCHOHCNCHOHCNCHOHC2NC2H3CH3CH3C2NC2H3CH3CH3C2NC2H3CH3CH3C2NC2H3CH3CH3C2NC2H3CH3CH3C2NC2H3CH3CH3CNCNCNCNCNCNCNCNCNCNCNCNCNCNCNCNCNCNCNCNCNCNCNCNCNCNCNCNCNCNCNCNCNCNCNCNCNCOHCNCOHCNCOHCNCOHCNCOHCNCOHC2NC2H2CH3CH3C2NC2H2CH3CH3C2NC2H2CH3CH3C2NC2H2CH3CH3C2NC2H2CH3CH3C2NC2H2CH3CH3CNCOHCNCOHCNCOHCNCOHCNCOHCNCOH
_chemical_formula_sum              "C180 N72 H180 O18"
_cell_length_a       39.0654
_cell_length_b       39.0654
_cell_length_c       14.8101
_cell_angle_alpha    90
_cell_angle_beta     90
_cell_angle_gamma    120

_space_group_name_H-M_alt    "P 1"
_space_group_IT_number       1

loop_
  _space_group_symop_operation_xyz
  'x, y, z'

loop_
  _atom_site_type_symbol
  _atom_site_label
  _atom_site_symmetry_multiplicity
  _atom_site_fract_x
  _atom_site_fract_y
  _atom_site_fract_z
  _atom_site_occupancy
  C   C1        1.0  0.22060  0.45822  0.25488  1.0000
  C   C2        1.0  0.20103  0.46041  0.33478  1.0000
  N   N1        1.0  0.25542  0.45831  0.26708  1.0000
  C   C3        1.0  0.20706  0.45662  0.15764  1.0000
  C   C4        1.0  0.23718  0.45617  0.08752  1.0000
  H   H1        1.0  0.26605  0.48296  0.09346  1.0000
  H   H2        1.0  0.22701  0.45454  0.01806  1.0000
  H   H3        1.0  0.24115  0.43070  0.09845  1.0000
  C   C5        1.0  0.20298  0.49347  0.13355  1.0000
  H   H4        1.0  0.22922  0.52073  0.15496  1.0000
  H   H5        1.0  0.17719  0.49210  0.16517  1.0000
  H   H6        1.0  0.19936  0.49543  0.06090  1.0000
  C   C6        1.0  0.16679  0.41778  0.14153  1.0000
  H   H7        1.0  0.16904  0.39187  0.15983  1.0000
  H   H8        1.0  0.15795  0.41490  0.07067  1.0000
  H   H9        1.0  0.14303  0.41719  0.18099  1.0000
  C   C7        1.0  0.57628  0.78402  0.25489  1.0000
  C   C8        1.0  0.57407  0.76226  0.33481  1.0000
  N   N2        1.0  0.57620  0.81876  0.26706  1.0000
  C   C9        1.0  0.57788  0.77207  0.15765  1.0000
  C   C10       1.0  0.57831  0.80263  0.08752  1.0000
  H   H10       1.0  0.55151  0.80470  0.09347  1.0000
  H   H11       1.0  0.57994  0.79409  0.01806  1.0000
  H   H12       1.0  0.60378  0.83207  0.09843  1.0000
  C   C11       1.0  0.54103  0.73113  0.13358  1.0000
  H   H13       1.0  0.51377  0.73011  0.15500  1.0000
  H   H14       1.0  0.54241  0.70672  0.16521  1.0000
  H   H15       1.0  0.53907  0.72555  0.06093  1.0000
  C   C12       1.0  0.61673  0.77066  0.14153  1.0000
  H   H16       1.0  0.64263  0.79882  0.15982  1.0000
  H   H17       1.0  0.61960  0.76469  0.07067  1.0000
  H   H18       1.0  0.61732  0.74750  0.18099  1.0000
  C   C13       1.0  0.25044  0.81388  0.25487  1.0000
  C   C14       1.0  0.27217  0.83345  0.33480  1.0000
  N   N3        1.0  0.21572  0.77904  0.26702  1.0000
  C   C15       1.0  0.26238  0.82746  0.15765  1.0000
  C   C16       1.0  0.23185  0.79733  0.08749  1.0000
  H   H19       1.0  0.22981  0.76847  0.09340  1.0000
  H   H20       1.0  0.24038  0.80751  0.01804  1.0000
  H   H21       1.0  0.20239  0.79332  0.09841  1.0000
  C   C17       1.0  0.30335  0.83160  0.13356  1.0000
  H   H22       1.0  0.30441  0.80537  0.15497  1.0000
  H   H23       1.0  0.32775  0.85741  0.16520  1.0000
  H   H24       1.0  0.30893  0.83523  0.06092  1.0000
  C   C18       1.0  0.26376  0.86770  0.14159  1.0000
  H   H25       1.0  0.23557  0.86540  0.15986  1.0000
  H   H26       1.0  0.26974  0.87657  0.07074  1.0000
  H   H27       1.0  0.28690  0.89146  0.18110  1.0000
  C   C19       1.0  0.81090  0.57917  0.25492  1.0000
  C   C20       1.0  0.83047  0.57697  0.33481  1.0000
  N   N4        1.0  0.77608  0.57908  0.26714  1.0000
  C   C21       1.0  0.82443  0.58078  0.15768  1.0000
  C   C22       1.0  0.79430  0.58122  0.08758  1.0000
  H   H28       1.0  0.76543  0.55441  0.09352  1.0000
  H   H29       1.0  0.80446  0.58285  0.01811  1.0000
  H   H30       1.0  0.79032  0.60668  0.09852  1.0000
  C   C23       1.0  0.82853  0.54393  0.13356  1.0000
  H   H31       1.0  0.80229  0.51667  0.15496  1.0000
  H   H32       1.0  0.85433  0.54531  0.16517  1.0000
  H   H33       1.0  0.83215  0.54199  0.06090  1.0000
  C   C24       1.0  0.86469  0.61964  0.14156  1.0000
  H   H34       1.0  0.86243  0.64553  0.15986  1.0000
  H   H35       1.0  0.87353  0.62251  0.07069  1.0000
  H   H36       1.0  0.88846  0.62023  0.18100  1.0000
  C   C25       1.0  0.45526  0.25335  0.25485  1.0000
  C   C26       1.0  0.45738  0.27509  0.33475  1.0000
  N   N5        1.0  0.45537  0.21863  0.26703  1.0000
  C   C27       1.0  0.45366  0.26529  0.15762  1.0000
  C   C28       1.0  0.45326  0.23476  0.08749  1.0000
  H   H37       1.0  0.48007  0.23270  0.09345  1.0000
  H   H38       1.0  0.45163  0.24329  0.01803  1.0000
  H   H39       1.0  0.42780  0.20530  0.09839  1.0000
  C   C29       1.0  0.49050  0.30626  0.13355  1.0000
  H   H40       1.0  0.51777  0.30730  0.15500  1.0000
  H   H41       1.0  0.48909  0.33066  0.16516  1.0000
  H   H42       1.0  0.49246  0.31183  0.06090  1.0000
  C   C30       1.0  0.41480  0.26668  0.14149  1.0000
  H   H43       1.0  0.38891  0.23850  0.15974  1.0000
  H   H44       1.0  0.41193  0.27266  0.07063  1.0000
  H   H45       1.0  0.41417  0.28983  0.18098  1.0000
  C   C31       1.0  0.78112  0.22349  0.25497  1.0000
  C   C32       1.0  0.75937  0.20390  0.33485  1.0000
  N   N6        1.0  0.81584  0.25832  0.26717  1.0000
  C   C33       1.0  0.76919  0.20996  0.15772  1.0000
  C   C34       1.0  0.79975  0.24008  0.08761  1.0000
  H   H46       1.0  0.80181  0.26895  0.09355  1.0000
  H   H47       1.0  0.79122  0.22992  0.01815  1.0000
  H   H48       1.0  0.82920  0.24407  0.09855  1.0000
  C   C35       1.0  0.72824  0.20585  0.13361  1.0000
  H   H49       1.0  0.72721  0.23208  0.15505  1.0000
  H   H50       1.0  0.70383  0.18005  0.16521  1.0000
  H   H51       1.0  0.72268  0.20224  0.06096  1.0000
  C   C36       1.0  0.76779  0.16970  0.14161  1.0000
  H   H52       1.0  0.79595  0.17197  0.15989  1.0000
  H   H53       1.0  0.76181  0.16085  0.07075  1.0000
  H   H54       1.0  0.74463  0.14594  0.18109  1.0000
  C   C37       1.0  0.15051  0.60451  0.27587  1.0000
  N   N7        1.0  0.15079  0.56984  0.27120  1.0000
  C   C38       1.0  0.15029  0.55013  0.34721  1.0000
  H   H55       1.0  0.14924  0.59187  0.01059  1.0000
  O   O1        1.0  0.14952  0.62167  0.19705  1.0000
  H   H56       1.0  0.15001  0.55841  0.21215  1.0000
  C   C39       1.0  0.42993  0.56769  0.27599  1.0000
  N   N8        1.0  0.46461  0.60262  0.27132  1.0000
  C   C40       1.0  0.48435  0.62181  0.34733  1.0000
  H   H57       1.0  0.44250  0.57908  0.01068  1.0000
  O   O2        1.0  0.41277  0.54954  0.19715  1.0000
  H   H58       1.0  0.47607  0.61324  0.21226  1.0000
  C   C41       1.0  0.46679  0.88389  0.27586  1.0000
  N   N9        1.0  0.43186  0.88365  0.27118  1.0000
  C   C42       1.0  0.41261  0.88411  0.34716  1.0000
  H   H59       1.0  0.45538  0.88511  0.01054  1.0000
  O   O3        1.0  0.48495  0.88489  0.19703  1.0000
  H   H60       1.0  0.42124  0.88449  0.21212  1.0000
  C   C43       1.0  0.88098  0.43285  0.27589  1.0000
  N   N10       1.0  0.88068  0.46750  0.27121  1.0000
  C   C44       1.0  0.88116  0.48721  0.34720  1.0000
  H   H61       1.0  0.88219  0.44548  0.01059  1.0000
  O   O4        1.0  0.88197  0.41567  0.19708  1.0000
  H   H62       1.0  0.88147  0.47894  0.21215  1.0000
  C   C45       1.0  0.60155  0.46970  0.27591  1.0000
  N   N11       1.0  0.56689  0.43474  0.27127  1.0000
  C   C46       1.0  0.54714  0.41557  0.34728  1.0000
  H   H63       1.0  0.58895  0.45838  0.01062  1.0000
  O   O5        1.0  0.61870  0.48784  0.19707  1.0000
  H   H64       1.0  0.55542  0.42411  0.21222  1.0000
  C   C47       1.0  0.56476  0.15352  0.27591  1.0000
  N   N12       1.0  0.59971  0.15381  0.27121  1.0000
  C   C48       1.0  0.61893  0.15330  0.34719  1.0000
  H   H65       1.0  0.57615  0.15224  0.01059  1.0000
  O   O6        1.0  0.54658  0.15251  0.19708  1.0000
  H   H66       1.0  0.61030  0.15293  0.21215  1.0000
  C   C49       1.0  0.99781  0.38187  0.25816  1.0000
  C   C50       1.0  0.97471  0.37162  0.33923  1.0000
  N   N13       1.0  0.03803  0.40254  0.26819  1.0000
  C   C51       1.0  0.98211  0.37253  0.16185  1.0000
  C   C52       1.0  0.01636  0.38914  0.08976  1.0000
  H   H67       1.0  0.03411  0.42135  0.09398  1.0000
  H   H68       1.0  0.00481  0.38157  0.02102  1.0000
  H   H69       1.0  0.03594  0.37703  0.10024  1.0000
  C   C53       1.0  0.95565  0.39096  0.13845  1.0000
  H   H70       1.0  0.97028  0.42208  0.15811  1.0000
  H   H71       1.0  0.92699  0.37544  0.17161  1.0000
  H   H72       1.0  0.94960  0.38909  0.06616  1.0000
  C   C54       1.0  0.95802  0.32671  0.14815  1.0000
  H   H73       1.0  0.97621  0.31345  0.16381  1.0000
  H   H74       1.0  0.94783  0.31924  0.07840  1.0000
  H   H75       1.0  0.93196  0.31286  0.19116  1.0000
  C   C55       1.0  0.65268  0.63758  0.25799  1.0000
  C   C56       1.0  0.66282  0.62469  0.33914  1.0000
  N   N14       1.0  0.63198  0.65712  0.26787  1.0000
  C   C57       1.0  0.66211  0.63124  0.16175  1.0000
  C   C58       1.0  0.64553  0.64886  0.08953  1.0000
  H   H76       1.0  0.61332  0.63439  0.09361  1.0000
  H   H77       1.0  0.65317  0.64490  0.02085  1.0000
  H   H78       1.0  0.65761  0.68055  0.10001  1.0000
  C   C59       1.0  0.64373  0.58636  0.13834  1.0000
  H   H79       1.0  0.61260  0.56985  0.15783  1.0000
  H   H80       1.0  0.65924  0.57323  0.17163  1.0000
  H   H81       1.0  0.64569  0.58219  0.06607  1.0000
  C   C60       1.0  0.70795  0.65301  0.14827  1.0000
  H   H82       1.0  0.72116  0.68445  0.16392  1.0000
  H   H83       1.0  0.71548  0.65030  0.07857  1.0000
  H   H84       1.0  0.72178  0.64083  0.19140  1.0000
  C   C61       1.0  0.39696  0.03671  0.25811  1.0000
  C   C62       1.0  0.40991  0.05974  0.33929  1.0000
  N   N15       1.0  0.37738  0.99648  0.26803  1.0000
  C   C63       1.0  0.40332  0.05246  0.16184  1.0000
  C   C64       1.0  0.38568  0.01823  0.08968  1.0000
  H   H85       1.0  0.40014  0.00048  0.09381  1.0000
  H   H86       1.0  0.38966  0.02981  0.02096  1.0000
  H   H87       1.0  0.35399  0.99864  0.10014  1.0000
  C   C65       1.0  0.44821  0.07894  0.13842  1.0000
  H   H88       1.0  0.46470  0.06431  0.15801  1.0000
  H   H89       1.0  0.46134  0.10759  0.17163  1.0000
  H   H90       1.0  0.45237  0.08502  0.06614  1.0000
  C   C66       1.0  0.38156  0.07653  0.14826  1.0000
  H   H91       1.0  0.35013  0.05833  0.16392  1.0000
  H   H92       1.0  0.38427  0.08675  0.07853  1.0000
  H   H93       1.0  0.39376  0.10257  0.19132  1.0000
  C   C67       1.0  0.03379  0.65563  0.25799  1.0000
  C   C68       1.0  0.05681  0.66579  0.33917  1.0000
  N   N16       1.0  0.99356  0.63489  0.26782  1.0000
  C   C69       1.0  0.04958  0.66509  0.16177  1.0000
  C   C70       1.0  0.01538  0.64849  0.08952  1.0000
  H   H94       1.0  0.99768  0.61628  0.09355  1.0000
  H   H95       1.0  0.02699  0.65615  0.02084  1.0000
  H   H96       1.0  0.99575  0.66053  0.09999  1.0000
  C   C71       1.0  0.07613  0.64676  0.13835  1.0000
  H   H97       1.0  0.06153  0.61563  0.15781  1.0000
  H   H98       1.0  0.10475  0.66229  0.17167  1.0000
  H   H99       1.0  0.08226  0.64874  0.06608  1.0000
  C   C72       1.0  0.07359  0.71093  0.14833  1.0000
  H   H100      1.0  0.05534  0.72410  0.16398  1.0000
  H   H101      1.0  0.08386  0.71849  0.07865  1.0000
  H   H102      1.0  0.09960  0.72478  0.19150  1.0000
  C   C73       1.0  0.37888  0.39986  0.25817  1.0000
  C   C74       1.0  0.36878  0.41278  0.33930  1.0000
  N   N17       1.0  0.39953  0.38028  0.26818  1.0000
  C   C75       1.0  0.36952  0.40622  0.16190  1.0000
  C   C76       1.0  0.38611  0.38857  0.08977  1.0000
  H   H103      1.0  0.41831  0.40302  0.09394  1.0000
  H   H104      1.0  0.37852  0.39255  0.02105  1.0000
  H   H105      1.0  0.37399  0.35688  0.10024  1.0000
  C   C77       1.0  0.38795  0.45111  0.13850  1.0000
  H   H106      1.0  0.41907  0.46759  0.15808  1.0000
  H   H107      1.0  0.37244  0.46426  0.17171  1.0000
  H   H108      1.0  0.38604  0.45528  0.06621  1.0000
  C   C78       1.0  0.32369  0.38449  0.14828  1.0000
  H   H109      1.0  0.31044  0.35305  0.16394  1.0000
  H   H110      1.0  0.31620  0.38721  0.07854  1.0000
  H   H111      1.0  0.30986  0.39670  0.19132  1.0000
  C   C79       1.0  0.63456  0.00069  0.25808  1.0000
  C   C80       1.0  0.62162  0.97767  0.33924  1.0000
  N   N18       1.0  0.65414  0.04092  0.26806  1.0000
  C   C81       1.0  0.62822  0.98496  0.16180  1.0000
  C   C82       1.0  0.64587  0.01920  0.08967  1.0000
  H   H112      1.0  0.63141  0.03695  0.09381  1.0000
  H   H113      1.0  0.64190  0.00763  0.02095  1.0000
  H   H114      1.0  0.67756  0.03878  0.10017  1.0000
  C   C83       1.0  0.58334  0.95849  0.13836  1.0000
  H   H115      1.0  0.56684  0.97311  0.15793  1.0000
  H   H116      1.0  0.57020  0.92983  0.17157  1.0000
  H   H117      1.0  0.57918  0.95241  0.06607  1.0000
  C   C84       1.0  0.64998  0.96089  0.14822  1.0000
  H   H118      1.0  0.68141  0.97908  0.16392  1.0000
  H   H119      1.0  0.64727  0.95068  0.07849  1.0000
  H   H120      1.0  0.63777  0.93484  0.19126  1.0000
  C   C85       1.0  0.09852  0.44266  0.34572  1.0000
  N   N19       1.0  0.12941  0.43561  0.34030  1.0000
  C   C86       1.0  0.16767  0.46610  0.33584  1.0000
  N   N20       1.0  0.17445  0.50387  0.34005  1.0000
  C   C87       1.0  0.14415  0.51146  0.34524  1.0000
  N   N21       1.0  0.10657  0.48070  0.34782  1.0000
  C   C88       1.0  0.59181  0.67748  0.34558  1.0000
  N   N22       1.0  0.59887  0.71542  0.34018  1.0000
  C   C89       1.0  0.56839  0.72321  0.33585  1.0000
  N   N23       1.0  0.53061  0.69223  0.34013  1.0000
  C   C90       1.0  0.52301  0.65434  0.34528  1.0000
  N   N24       1.0  0.55376  0.64749  0.34774  1.0000
  C   C91       1.0  0.35697  0.93595  0.34557  1.0000
  N   N25       1.0  0.31903  0.90507  0.34025  1.0000
  C   C92       1.0  0.31123  0.86680  0.33592  1.0000
  N   N26       1.0  0.34221  0.86000  0.34009  1.0000
  C   C93       1.0  0.38011  0.89029  0.34520  1.0000
  N   N27       1.0  0.38696  0.92788  0.34769  1.0000
  C   C94       1.0  0.93297  0.59467  0.34549  1.0000
  N   N28       1.0  0.90209  0.60174  0.34014  1.0000
  C   C95       1.0  0.86382  0.57126  0.33583  1.0000
  N   N29       1.0  0.85702  0.53348  0.34011  1.0000
  C   C96       1.0  0.88731  0.52588  0.34522  1.0000
  N   N30       1.0  0.92490  0.55662  0.34764  1.0000
  C   C97       1.0  0.43968  0.35987  0.34568  1.0000
  N   N31       1.0  0.43262  0.32194  0.34024  1.0000
  C   C98       1.0  0.46311  0.31416  0.33581  1.0000
  N   N32       1.0  0.50088  0.34514  0.34005  1.0000
  C   C99       1.0  0.50848  0.38303  0.34525  1.0000
  N   N33       1.0  0.47773  0.38987  0.34782  1.0000
  C   C100      1.0  0.67454  0.10143  0.34568  1.0000
  N   N34       1.0  0.71248  0.13229  0.34030  1.0000
  C   C101      1.0  0.72029  0.17057  0.33589  1.0000
  N   N35       1.0  0.68933  0.17739  0.34009  1.0000
  C   C102      1.0  0.65143  0.14711  0.34524  1.0000
  N   N36       1.0  0.64456  0.10951  0.34777  1.0000
  C   C103      1.0  0.43949  0.10052  0.34218  1.0000
  N   N37       1.0  0.43239  0.13146  0.34248  1.0000
  C   C104      1.0  0.46272  0.16970  0.34847  1.0000
  N   N38       1.0  0.50038  0.17654  0.35558  1.0000
  C   C105      1.0  0.50816  0.14632  0.35909  1.0000
  N   N39       1.0  0.47753  0.10877  0.35079  1.0000
  C   C106      1.0  0.67391  0.59502  0.34225  1.0000
  N   N40       1.0  0.71192  0.60207  0.34251  1.0000
  C   C107      1.0  0.71979  0.57171  0.34852  1.0000
  N   N41       1.0  0.68893  0.53406  0.35561  1.0000
  C   C108      1.0  0.65094  0.52633  0.35901  1.0000
  N   N42       1.0  0.64408  0.55700  0.35076  1.0000
  C   C109      1.0  0.93395  0.36052  0.34215  1.0000
  N   N43       1.0  0.90299  0.32250  0.34250  1.0000
  C   C110      1.0  0.86477  0.31463  0.34854  1.0000
  N   N44       1.0  0.85796  0.34547  0.35565  1.0000
  C   C111      1.0  0.88821  0.38346  0.35912  1.0000
  N   N45       1.0  0.92575  0.39034  0.35079  1.0000
  C   C112      1.0  0.59204  0.93687  0.34213  1.0000
  N   N46       1.0  0.59915  0.90595  0.34247  1.0000
  C   C113      1.0  0.56883  0.86771  0.34848  1.0000
  N   N47       1.0  0.53116  0.86085  0.35556  1.0000
  C   C114      1.0  0.52338  0.89107  0.35902  1.0000
  N   N48       1.0  0.55400  0.92862  0.35073  1.0000
  C   C115      1.0  0.35762  0.44241  0.34231  1.0000
  N   N49       1.0  0.31960  0.43533  0.34254  1.0000
  C   C116      1.0  0.31170  0.46566  0.34852  1.0000
  N   N50       1.0  0.34253  0.50332  0.35564  1.0000
  C   C117      1.0  0.38052  0.51108  0.35913  1.0000
  N   N51       1.0  0.38743  0.48044  0.35087  1.0000
  C   C118      1.0  0.09757  0.67689  0.34228  1.0000
  N   N52       1.0  0.12854  0.71489  0.34250  1.0000
  C   C119      1.0  0.16676  0.72274  0.34849  1.0000
  N   N53       1.0  0.17354  0.69187  0.35558  1.0000
  C   C120      1.0  0.14327  0.65389  0.35905  1.0000
  N   N54       1.0  0.10574  0.64704  0.35082  1.0000
  C   C121      1.0  0.21981  0.46288  0.41865  1.0000
  N   N55       1.0  0.25473  0.46294  0.42288  1.0000
  C   C122      1.0  0.27283  0.45988  0.34732  1.0000
  O   O7        1.0  0.20431  0.46684  0.49727  1.0000
  H   H121      1.0  0.26727  0.46589  0.48154  1.0000
  C   C123      1.0  0.57163  0.77861  0.41864  1.0000
  N   N56       1.0  0.57157  0.81347  0.42283  1.0000
  C   C124      1.0  0.57464  0.83464  0.34727  1.0000
  O   O8        1.0  0.56766  0.75915  0.49728  1.0000
  H   H122      1.0  0.56862  0.82306  0.48148  1.0000
  C   C125      1.0  0.25585  0.81464  0.41863  1.0000
  N   N57       1.0  0.22100  0.77971  0.42282  1.0000
  C   C126      1.0  0.19988  0.76160  0.34722  1.0000
  O   O9        1.0  0.27530  0.83012  0.49728  1.0000
  H   H123      1.0  0.21141  0.76714  0.48146  1.0000
  C   C127      1.0  0.81166  0.57444  0.41867  1.0000
  N   N58       1.0  0.77674  0.57439  0.42291  1.0000
  C   C128      1.0  0.75866  0.57750  0.34739  1.0000
  O   O10       1.0  0.82713  0.57042  0.49727  1.0000
  H   H124      1.0  0.76418  0.57137  0.48156  1.0000
  C   C129      1.0  0.45991  0.25879  0.41859  1.0000
  N   N59       1.0  0.45998  0.22393  0.42283  1.0000
  C   C130      1.0  0.45693  0.20278  0.34728  1.0000
  O   O11       1.0  0.46386  0.27825  0.49722  1.0000
  H   H125      1.0  0.46296  0.21436  0.48148  1.0000
  C   C131      1.0  0.77563  0.22276  0.41868  1.0000
  N   N60       1.0  0.81047  0.25769  0.42291  1.0000
  C   C132      1.0  0.83169  0.27575  0.34739  1.0000
  O   O12       1.0  0.75613  0.20730  0.49729  1.0000
  H   H126      1.0  0.82002  0.27026  0.48154  1.0000
  C   C133      1.0  0.14958  0.60063  0.44040  1.0000
  C   C134      1.0  0.14956  0.62120  0.36038  1.0000
  N   N61       1.0  0.14933  0.56587  0.42786  1.0000
  C   C135      1.0  0.14939  0.61308  0.53776  1.0000
  C   C136      1.0  0.14880  0.58237  0.60765  1.0000
  H   H127      1.0  0.12220  0.55351  0.59928  1.0000
  H   H128      1.0  0.17452  0.57863  0.59879  1.0000
  C   C137      1.0  0.11199  0.61666  0.55805  1.0000
  H   H129      1.0  0.08528  0.59090  0.53254  1.0000
  H   H130      1.0  0.11426  0.64311  0.52791  1.0000
  H   H131      1.0  0.10830  0.61878  0.63046  1.0000
  C   C138      1.0  0.18779  0.65330  0.55768  1.0000
  H   H132      1.0  0.21410  0.65134  0.54208  1.0000
  H   H133      1.0  0.18924  0.66148  0.62873  1.0000
  H   H134      1.0  0.18903  0.67736  0.51818  1.0000
  C   C139      1.0  0.43378  0.57065  0.44049  1.0000
  C   C140      1.0  0.41317  0.55009  0.36048  1.0000
  N   N62       1.0  0.46857  0.60513  0.42796  1.0000
  C   C141      1.0  0.42130  0.55802  0.53784  1.0000
  C   C142      1.0  0.45203  0.58812  0.60774  1.0000
  H   H135      1.0  0.48086  0.59032  0.59942  1.0000
  H   H136      1.0  0.45583  0.61760  0.59886  1.0000
  C   C143      1.0  0.41764  0.51702  0.55817  1.0000
  H   H137      1.0  0.44338  0.51602  0.53271  1.0000
  H   H138      1.0  0.39118  0.49286  0.52803  1.0000
  H   H139      1.0  0.41550  0.51122  0.63059  1.0000
  C   C144      1.0  0.38112  0.55628  0.55769  1.0000
  H   H140      1.0  0.38314  0.58458  0.54212  1.0000
  H   H141      1.0  0.37290  0.54954  0.62873  1.0000
  H   H142      1.0  0.35704  0.53350  0.51813  1.0000
  C   C145      1.0  0.46381  0.88477  0.44036  1.0000
  C   C146      1.0  0.48436  0.88470  0.36037  1.0000
  N   N63       1.0  0.42932  0.88505  0.42779  1.0000
  C   C147      1.0  0.47644  0.88495  0.53771  1.0000
  C   C148      1.0  0.44633  0.88556  0.60759  1.0000
  H   H143      1.0  0.44410  0.91218  0.59923  1.0000
  H   H144      1.0  0.41685  0.85986  0.59873  1.0000
  C   C149      1.0  0.51743  0.92232  0.55801  1.0000
  H   H145      1.0  0.51840  0.94904  0.53252  1.0000
  H   H146      1.0  0.54160  0.92003  0.52788  1.0000
  H   H147      1.0  0.52323  0.92599  0.63043  1.0000
  C   C150      1.0  0.47822  0.84653  0.55763  1.0000
  H   H148      1.0  0.44993  0.82023  0.54208  1.0000
  H   H149      1.0  0.48496  0.84508  0.62868  1.0000
  H   H150      1.0  0.50102  0.84525  0.51811  1.0000
  C   C151      1.0  0.88188  0.43671  0.44042  1.0000
  C   C152      1.0  0.88191  0.41615  0.36040  1.0000
  N   N64       1.0  0.88211  0.47147  0.42786  1.0000
  C   C153      1.0  0.88206  0.42426  0.53777  1.0000
  C   C154      1.0  0.88264  0.45498  0.60765  1.0000
  H   H151      1.0  0.90925  0.48383  0.59929  1.0000
  H   H152      1.0  0.85693  0.45873  0.59877  1.0000
  C   C155      1.0  0.91944  0.42067  0.55810  1.0000
  H   H153      1.0  0.94616  0.44644  0.53264  1.0000
  H   H154      1.0  0.91718  0.39423  0.52795  1.0000
  H   H155      1.0  0.92310  0.41853  0.63052  1.0000
  C   C156      1.0  0.84365  0.38405  0.55767  1.0000
  H   H156      1.0  0.81734  0.38602  0.54206  1.0000
  H   H157      1.0  0.84219  0.37586  0.62873  1.0000
  H   H158      1.0  0.84240  0.35998  0.51818  1.0000
  C   C157      1.0  0.59769  0.46677  0.44043  1.0000
  C   C158      1.0  0.61827  0.48732  0.36040  1.0000
  N   N65       1.0  0.56291  0.43228  0.42790  1.0000
  C   C159      1.0  0.61016  0.47942  0.53777  1.0000
  C   C160      1.0  0.57944  0.44932  0.60769  1.0000
  H   H159      1.0  0.55060  0.44710  0.59934  1.0000
  H   H160      1.0  0.57566  0.41984  0.59884  1.0000
  C   C161      1.0  0.61379  0.52042  0.55805  1.0000
  H   H161      1.0  0.58804  0.52139  0.53256  1.0000
  H   H162      1.0  0.64025  0.54458  0.52790  1.0000
  H   H163      1.0  0.61593  0.52623  0.63046  1.0000
  C   C162      1.0  0.65036  0.48119  0.55767  1.0000
  H   H164      1.0  0.64836  0.45289  0.54211  1.0000
  H   H165      1.0  0.65856  0.48793  0.62871  1.0000
  H   H166      1.0  0.67443  0.50398  0.51813  1.0000
  C   C163      1.0  0.56773  0.15261  0.44041  1.0000
  C   C164      1.0  0.54717  0.15268  0.36042  1.0000
  N   N66       1.0  0.60222  0.15233  0.42784  1.0000
  C   C165      1.0  0.55509  0.15240  0.53777  1.0000
  C   C166      1.0  0.58521  0.15180  0.60764  1.0000
  H   H167      1.0  0.58745  0.12519  0.59926  1.0000
  H   H168      1.0  0.61467  0.17751  0.59879  1.0000
  C   C167      1.0  0.51411  0.11501  0.55803  1.0000
  H   H169      1.0  0.51316  0.08831  0.53251  1.0000
  H   H170      1.0  0.48993  0.11729  0.52792  1.0000
  H   H171      1.0  0.50830  0.11132  0.63045  1.0000
  C   C168      1.0  0.55328  0.19081  0.55773  1.0000
  H   H172      1.0  0.58156  0.21712  0.54218  1.0000
  H   H173      1.0  0.54654  0.19225  0.62877  1.0000
  H   H174      1.0  0.53047  0.19207  0.51821  1.0000
  C   C169      1.0  0.99586  0.38313  0.42212  1.0000
  N   N67       1.0  0.03616  0.40339  0.42427  1.0000
  C   C170      1.0  0.05808  0.41303  0.34739  1.0000
  O   O13       1.0  0.97654  0.37640  0.50199  1.0000
  H   H175      1.0  0.04946  0.41269  0.48229  1.0000
  C   C171      1.0  0.65128  0.63433  0.42200  1.0000
  N   N68       1.0  0.63101  0.65437  0.42404  1.0000
  C   C172      1.0  0.62139  0.66659  0.34702  1.0000
  O   O14       1.0  0.65795  0.62173  0.50191  1.0000
  H   H176      1.0  0.62169  0.65839  0.48202  1.0000
  C   C173      1.0  0.40012  0.03857  0.42215  1.0000
  N   N69       1.0  0.38007  0.99827  0.42420  1.0000
  C   C174      1.0  0.36784  0.97641  0.34720  1.0000
  O   O15       1.0  0.41271  0.05786  0.50204  1.0000
  H   H177      1.0  0.37597  0.98492  0.48219  1.0000
  C   C175      1.0  0.03559  0.65420  0.42197  1.0000
  N   N70       1.0  0.99529  0.63390  0.42394  1.0000
  C   C176      1.0  0.97344  0.62426  0.34690  1.0000
  O   O16       1.0  0.05484  0.66088  0.50191  1.0000
  H   H178      1.0  0.98194  0.62457  0.48191  1.0000
  C   C177      1.0  0.38023  0.40310  0.42220  1.0000
  N   N71       1.0  0.40049  0.38305  0.42423  1.0000
  C   C178      1.0  0.41007  0.37071  0.34732  1.0000
  O   O17       1.0  0.37356  0.41571  0.50209  1.0000
  H   H179      1.0  0.40977  0.37901  0.48223  1.0000
  C   C179      1.0  0.63138  0.99879  0.42216  1.0000
  N   N72       1.0  0.65143  0.03910  0.42424  1.0000
  C   C180      1.0  0.66366  0.06097  0.34726  1.0000
  O   O18       1.0  0.61880  0.97948  0.50202  1.0000
  H   H180      1.0  0.65552  0.05243  0.48224  1.0000
