data_image0
_chemical_formula_structural       C3OHCNOCHC3HNOC3OHCNOCHC3HNOC3HOC3NO2HC2HOC2HNO2C3HOC3NO2HC2HOC2HNO2C2OHOHC2HNOHCHC3H2O2C2OHOHC2HNOHCHC3H2O2C3OHC4OHC6OHC4HNO2C4HNO2C2OC4HNO2C3H2C3HC2HC3H2C2HNOC2HNO2C2HNOC2HNO2C3OHC4OHC6OHC4HNO2C4HNO2C2OC4HNO2C3H2C3HC2HC3H2C2HNOC2HNO2C2HNOC2HNO2C6O2H2C6O2H2C6O2H2C4HNO2C4HNO2C4HNO2C4HNO2C4HNO2C4HNO2C3H2C3H2C3H2C3H2C3H2C3H2C2HNO2C2HNO2C2HNO2C2HNO2C2HNO2C2HNO2C6O2H2C6O2H2C6O2H2C4HNO2C4HNO2C4HNO2C4HNO2C4HNO2C4HNO2C3H2C3H2C3H2C3H2C3H2C3H2C2HNO2C2HNO2C2HNO2C2HNO2C2HNO2C2HNO2
_chemical_formula_sum              "C288 O120 H120 N48"
_cell_length_a       46.6836
_cell_length_b       46.6836
_cell_length_c       14.8489
_cell_angle_alpha    90
_cell_angle_beta     90
_cell_angle_gamma    120

_space_group_name_H-M_alt    "P 1"
_space_group_IT_number       1

loop_
  _space_group_symop_operation_xyz
  'x, y, z'

loop_
  _atom_site_type_symbol
  _atom_site_label
  _atom_site_symmetry_multiplicity
  _atom_site_fract_x
  _atom_site_fract_y
  _atom_site_fract_z
  _atom_site_occupancy
  C   C1        1.0  0.02563  0.26429  0.31535  1.0000
  C   C2        1.0  0.04555  0.29997  0.31048  1.0000
  C   C3        1.0  0.07916  0.31754  0.33915  1.0000
  O   O1        1.0  0.03396  0.31966  0.27916  1.0000
  H   H1        1.0  0.02989  0.31499  0.21438  1.0000
  C   C4        1.0  0.09844  0.24924  0.35357  1.0000
  N   N1        1.0  0.09247  0.23881  0.19089  1.0000
  O   O2        1.0  0.08323  0.21147  0.15316  1.0000
  C   C5        1.0  0.09930  0.35247  0.34824  1.0000
  H   H2        1.0  0.10071  0.36384  0.21040  1.0000
  C   C6        1.0  0.09503  0.29918  0.35610  1.0000
  C   C7        1.0  0.07881  0.26465  0.34684  1.0000
  C   C8        1.0  0.04445  0.24798  0.32922  1.0000
  H   H3        1.0  0.03329  0.22308  0.33562  1.0000
  N   N2        1.0  0.10693  0.26219  0.51479  1.0000
  O   O3        1.0  0.10175  0.24116  0.57479  1.0000
  C   C9        1.0  0.02563  0.76429  0.31535  1.0000
  C   C10       1.0  0.04555  0.79997  0.31048  1.0000
  C   C11       1.0  0.07916  0.81754  0.33915  1.0000
  O   O4        1.0  0.03395  0.81965  0.27916  1.0000
  H   H4        1.0  0.02989  0.81499  0.21438  1.0000
  C   C12       1.0  0.09844  0.74923  0.35357  1.0000
  N   N3        1.0  0.09247  0.73881  0.19089  1.0000
  O   O5        1.0  0.08323  0.71147  0.15316  1.0000
  C   C13       1.0  0.09930  0.85247  0.34824  1.0000
  H   H5        1.0  0.10071  0.86384  0.21040  1.0000
  C   C14       1.0  0.09503  0.79918  0.35610  1.0000
  C   C15       1.0  0.07881  0.76465  0.34684  1.0000
  C   C16       1.0  0.04445  0.74798  0.32922  1.0000
  H   H6        1.0  0.03329  0.72308  0.33562  1.0000
  N   N4        1.0  0.10693  0.76219  0.51479  1.0000
  O   O6        1.0  0.10175  0.74116  0.57479  1.0000
  C   C17       1.0  0.16022  0.24942  0.34782  1.0000
  C   C18       1.0  0.13985  0.24114  0.27073  1.0000
  C   C19       1.0  0.10958  0.24163  0.27232  1.0000
  H   H7        1.0  0.14931  0.23989  0.20959  1.0000
  O   O7        1.0  0.10986  0.26163  0.13650  1.0000
  C   C20       1.0  0.11151  0.37306  0.27160  1.0000
  C   C21       1.0  0.14219  0.40340  0.27360  1.0000
  C   C22       1.0  0.16098  0.41423  0.35478  1.0000
  N   N5        1.0  0.15649  0.42078  0.19253  1.0000
  O   O8        1.0  0.16196  0.40357  0.13754  1.0000
  O   O9        1.0  0.13836  0.43008  0.15534  1.0000
  H   H8        1.0  0.12005  0.31162  0.36827  1.0000
  C   C23       1.0  0.11738  0.25443  0.43315  1.0000
  C   C24       1.0  0.14747  0.25413  0.42939  1.0000
  H   H9        1.0  0.16202  0.26098  0.48590  1.0000
  O   O10       1.0  0.12775  0.29034  0.54403  1.0000
  C   C25       1.0  0.14721  0.39508  0.43409  1.0000
  C   C26       1.0  0.11678  0.36503  0.42993  1.0000
  H   H10       1.0  0.10909  0.35037  0.48621  1.0000
  N   N6        1.0  0.16532  0.40533  0.51594  1.0000
  O   O11       1.0  0.14943  0.41045  0.57594  1.0000
  O   O12       1.0  0.17254  0.38441  0.54497  1.0000
  C   C27       1.0  0.16022  0.74942  0.34782  1.0000
  C   C28       1.0  0.13985  0.74114  0.27073  1.0000
  C   C29       1.0  0.10958  0.74163  0.27232  1.0000
  H   H11       1.0  0.14931  0.73989  0.20959  1.0000
  O   O13       1.0  0.10986  0.76163  0.13650  1.0000
  C   C30       1.0  0.11151  0.87306  0.27160  1.0000
  C   C31       1.0  0.14219  0.90340  0.27360  1.0000
  C   C32       1.0  0.16098  0.91423  0.35478  1.0000
  N   N7        1.0  0.15649  0.92078  0.19253  1.0000
  O   O14       1.0  0.16196  0.90357  0.13754  1.0000
  O   O15       1.0  0.13836  0.93008  0.15534  1.0000
  H   H12       1.0  0.12005  0.81162  0.36827  1.0000
  C   C33       1.0  0.11739  0.75443  0.43315  1.0000
  C   C34       1.0  0.14747  0.75413  0.42939  1.0000
  H   H13       1.0  0.16202  0.76098  0.48590  1.0000
  O   O16       1.0  0.12775  0.79034  0.54403  1.0000
  C   C35       1.0  0.14721  0.89507  0.43409  1.0000
  C   C36       1.0  0.11678  0.86503  0.42993  1.0000
  H   H14       1.0  0.10908  0.85037  0.48621  1.0000
  N   N8        1.0  0.16532  0.90533  0.51594  1.0000
  O   O17       1.0  0.14943  0.91045  0.57594  1.0000
  O   O18       1.0  0.17255  0.88441  0.54497  1.0000
  C   C37       1.0  0.21276  0.24819  0.31033  1.0000
  C   C38       1.0  0.19517  0.26421  0.33897  1.0000
  O   O19       1.0  0.19313  0.21695  0.27860  1.0000
  H   H15       1.0  0.19789  0.21766  0.21386  1.0000
  O   O20       1.0  0.21953  0.03148  0.27888  1.0000
  H   H16       1.0  0.22022  0.02741  0.21414  1.0000
  C   C39       1.0  0.24365  0.10884  0.27116  1.0000
  C   C40       1.0  0.24409  0.13958  0.27254  1.0000
  H   H17       1.0  0.24235  0.09808  0.21008  1.0000
  N   N9        1.0  0.24120  0.15380  0.19106  1.0000
  O   O21       1.0  0.21386  0.13565  0.15348  1.0000
  H   H18       1.0  0.22560  0.19740  0.33595  1.0000
  C   C41       1.0  0.21352  0.29839  0.35661  1.0000
  H   H19       1.0  0.20105  0.31095  0.36872  1.0000
  C   C42       1.0  0.21442  0.41782  0.35840  1.0000
  C   C43       1.0  0.19605  0.43397  0.34871  1.0000
  C   C44       1.0  0.21367  0.46824  0.32987  1.0000
  H   H20       1.0  0.20187  0.39282  0.37088  1.0000
  H   H21       1.0  0.19991  0.47939  0.33567  1.0000
  O   O22       1.0  0.22211  0.33966  0.54468  1.0000
  O   O23       1.0  0.24383  0.14720  0.57501  1.0000
  C   C45       1.0  0.21276  0.74818  0.31033  1.0000
  C   C46       1.0  0.19517  0.76421  0.33897  1.0000
  O   O24       1.0  0.19313  0.71695  0.27860  1.0000
  H   H22       1.0  0.19789  0.71766  0.21386  1.0000
  O   O25       1.0  0.21953  0.53148  0.27888  1.0000
  H   H23       1.0  0.22022  0.52741  0.21414  1.0000
  C   C47       1.0  0.24365  0.60884  0.27116  1.0000
  C   C48       1.0  0.24409  0.63958  0.27254  1.0000
  H   H24       1.0  0.24235  0.59808  0.21008  1.0000
  N   N10       1.0  0.24120  0.65380  0.19106  1.0000
  O   O26       1.0  0.21386  0.63565  0.15348  1.0000
  H   H25       1.0  0.22560  0.69740  0.33595  1.0000
  C   C49       1.0  0.21352  0.79839  0.35661  1.0000
  H   H26       1.0  0.20105  0.81095  0.36872  1.0000
  C   C50       1.0  0.21442  0.91782  0.35840  1.0000
  C   C51       1.0  0.19605  0.93397  0.34871  1.0000
  C   C52       1.0  0.21367  0.96823  0.32987  1.0000
  H   H27       1.0  0.20187  0.89282  0.37088  1.0000
  H   H28       1.0  0.19990  0.97939  0.33567  1.0000
  O   O27       1.0  0.22211  0.83966  0.54468  1.0000
  O   O28       1.0  0.24383  0.64720  0.57501  1.0000
  C   C53       1.0  0.48955  0.24588  0.31574  1.0000
  C   C54       1.0  0.43613  0.19264  0.34068  1.0000
  C   C55       1.0  0.46963  0.21021  0.31106  1.0000
  O   O29       1.0  0.48116  0.19055  0.27909  1.0000
  H   H29       1.0  0.48513  0.19529  0.21431  1.0000
  C   C56       1.0  0.26682  0.24625  0.31535  1.0000
  C   C57       1.0  0.32006  0.24593  0.33871  1.0000
  C   C58       1.0  0.30249  0.26200  0.31031  1.0000
  C   C59       1.0  0.24843  0.26392  0.31553  1.0000
  O   O30       1.0  0.32215  0.29327  0.27887  1.0000
  H   H30       1.0  0.31744  0.29264  0.21411  1.0000
  C   C60       1.0  0.26649  0.02312  0.31564  1.0000
  C   C61       1.0  0.26678  0.07665  0.33939  1.0000
  C   C62       1.0  0.25076  0.04306  0.31058  1.0000
  C   C63       1.0  0.24879  0.48704  0.31580  1.0000
  C   C64       1.0  0.26454  0.46712  0.31110  1.0000
  C   C65       1.0  0.24859  0.43361  0.34065  1.0000
  O   O31       1.0  0.29575  0.47865  0.27923  1.0000
  H   H31       1.0  0.29501  0.48268  0.21448  1.0000
  C   C66       1.0  0.26331  0.41339  0.34945  1.0000
  C   C67       1.0  0.27181  0.40148  0.27237  1.0000
  C   C68       1.0  0.27131  0.37072  0.27360  1.0000
  C   C69       1.0  0.26347  0.35174  0.35445  1.0000
  H   H32       1.0  0.27319  0.41231  0.21134  1.0000
  N   N11       1.0  0.27425  0.35655  0.19208  1.0000
  O   O32       1.0  0.25153  0.35125  0.13746  1.0000
  O   O33       1.0  0.30165  0.37470  0.15475  1.0000
  C   C70       1.0  0.35500  0.26076  0.34786  1.0000
  C   C71       1.0  0.37557  0.26903  0.27121  1.0000
  C   C72       1.0  0.40588  0.26864  0.27338  1.0000
  C   C73       1.0  0.41673  0.26085  0.35484  1.0000
  H   H33       1.0  0.36628  0.27047  0.20998  1.0000
  N   N12       1.0  0.42322  0.27158  0.19231  1.0000
  O   O34       1.0  0.40598  0.24882  0.13757  1.0000
  O   O35       1.0  0.43253  0.29895  0.15477  1.0000
  C   C74       1.0  0.25202  0.09683  0.34828  1.0000
  C   C75       1.0  0.25174  0.15837  0.35367  1.0000
  O   O36       1.0  0.26400  0.15920  0.13660  1.0000
  C   C76       1.0  0.41592  0.15769  0.34949  1.0000
  C   C77       1.0  0.40404  0.13725  0.27247  1.0000
  C   C78       1.0  0.37328  0.10698  0.27384  1.0000
  C   C79       1.0  0.35431  0.09588  0.35472  1.0000
  H   H34       1.0  0.41484  0.14668  0.21142  1.0000
  N   N13       1.0  0.35911  0.08983  0.19239  1.0000
  O   O37       1.0  0.35379  0.10721  0.13768  1.0000
  O   O38       1.0  0.37726  0.08056  0.15512  1.0000
  C   C80       1.0  0.47073  0.26217  0.32991  1.0000
  C   C81       1.0  0.43645  0.24551  0.34867  1.0000
  C   C82       1.0  0.42034  0.21101  0.35871  1.0000
  H   H35       1.0  0.48184  0.28709  0.33540  1.0000
  H   H36       1.0  0.39534  0.19854  0.37108  1.0000
  C   C83       1.0  0.25050  0.21112  0.32932  1.0000
  C   C84       1.0  0.26718  0.19343  0.34681  1.0000
  C   C85       1.0  0.30171  0.21172  0.35586  1.0000
  H   H37       1.0  0.31416  0.19914  0.36786  1.0000
  C   C86       1.0  0.24806  0.31669  0.34762  1.0000
  C   C87       1.0  0.26473  0.29903  0.32989  1.0000
  H   H38       1.0  0.28964  0.31276  0.33612  1.0000
  C   C88       1.0  0.30160  0.04192  0.32989  1.0000
  C   C89       1.0  0.31926  0.07623  0.34797  1.0000
  C   C90       1.0  0.30095  0.09245  0.35725  1.0000
  H   H39       1.0  0.31534  0.03074  0.33603  1.0000
  H   H40       1.0  0.31351  0.11747  0.36937  1.0000
  C   C91       1.0  0.25816  0.36536  0.43416  1.0000
  C   C92       1.0  0.25852  0.39578  0.43078  1.0000
  H   H41       1.0  0.25152  0.40331  0.48732  1.0000
  N   N14       1.0  0.25028  0.34701  0.51560  1.0000
  O   O39       1.0  0.27125  0.36274  0.57583  1.0000
  C   C93       1.0  0.39760  0.25557  0.43409  1.0000
  C   C94       1.0  0.36754  0.25591  0.42967  1.0000
  H   H42       1.0  0.35287  0.24906  0.48596  1.0000
  N   N15       1.0  0.40787  0.24780  0.51603  1.0000
  O   O40       1.0  0.41296  0.26885  0.57588  1.0000
  O   O41       1.0  0.38696  0.21967  0.54519  1.0000
  C   C95       1.0  0.25702  0.14475  0.43335  1.0000
  C   C96       1.0  0.25677  0.11439  0.42970  1.0000
  H   H43       1.0  0.26367  0.10675  0.48625  1.0000
  N   N16       1.0  0.26481  0.16303  0.51490  1.0000
  O   O42       1.0  0.29299  0.17042  0.54404  1.0000
  C   C97       1.0  0.36795  0.11484  0.43438  1.0000
  C   C98       1.0  0.39837  0.14491  0.43092  1.0000
  H   H44       1.0  0.40592  0.15946  0.48743  1.0000
  N   N17       1.0  0.34964  0.10438  0.51589  1.0000
  O   O43       1.0  0.36541  0.09916  0.57606  1.0000
  O   O44       1.0  0.34230  0.12521  0.54499  1.0000
  C   C99       1.0  0.48955  0.74588  0.31574  1.0000
  C   C100      1.0  0.43613  0.69264  0.34068  1.0000
  C   C101      1.0  0.46963  0.71020  0.31106  1.0000
  O   O45       1.0  0.48116  0.69054  0.27909  1.0000
  H   H45       1.0  0.48513  0.69529  0.21431  1.0000
  C   C102      1.0  0.26682  0.74625  0.31535  1.0000
  C   C103      1.0  0.32006  0.74593  0.33871  1.0000
  C   C104      1.0  0.30249  0.76200  0.31031  1.0000
  C   C105      1.0  0.24843  0.76392  0.31553  1.0000
  O   O46       1.0  0.32215  0.79327  0.27887  1.0000
  H   H46       1.0  0.31744  0.79264  0.21411  1.0000
  C   C106      1.0  0.26648  0.52312  0.31564  1.0000
  C   C107      1.0  0.26678  0.57665  0.33939  1.0000
  C   C108      1.0  0.25076  0.54306  0.31058  1.0000
  C   C109      1.0  0.24879  0.98704  0.31580  1.0000
  C   C110      1.0  0.26454  0.96711  0.31110  1.0000
  C   C111      1.0  0.24859  0.93361  0.34065  1.0000
  O   O47       1.0  0.29575  0.97865  0.27923  1.0000
  H   H47       1.0  0.29501  0.98268  0.21448  1.0000
  C   C112      1.0  0.26331  0.91339  0.34945  1.0000
  C   C113      1.0  0.27181  0.90148  0.27237  1.0000
  C   C114      1.0  0.27131  0.87072  0.27360  1.0000
  C   C115      1.0  0.26347  0.85174  0.35445  1.0000
  H   H48       1.0  0.27319  0.91231  0.21134  1.0000
  N   N18       1.0  0.27425  0.85655  0.19208  1.0000
  O   O48       1.0  0.25153  0.85125  0.13746  1.0000
  O   O49       1.0  0.30165  0.87470  0.15475  1.0000
  C   C116      1.0  0.35500  0.76076  0.34786  1.0000
  C   C117      1.0  0.37557  0.76903  0.27121  1.0000
  C   C118      1.0  0.40588  0.76864  0.27338  1.0000
  C   C119      1.0  0.41673  0.76085  0.35484  1.0000
  H   H49       1.0  0.36628  0.77046  0.20998  1.0000
  N   N19       1.0  0.42322  0.77158  0.19231  1.0000
  O   O50       1.0  0.40598  0.74882  0.13757  1.0000
  O   O51       1.0  0.43253  0.79895  0.15477  1.0000
  C   C120      1.0  0.25202  0.59683  0.34828  1.0000
  C   C121      1.0  0.25174  0.65837  0.35367  1.0000
  O   O52       1.0  0.26400  0.65920  0.13660  1.0000
  C   C122      1.0  0.41592  0.65768  0.34949  1.0000
  C   C123      1.0  0.40404  0.63725  0.27247  1.0000
  C   C124      1.0  0.37328  0.60698  0.27384  1.0000
  C   C125      1.0  0.35431  0.59588  0.35472  1.0000
  H   H50       1.0  0.41484  0.64668  0.21142  1.0000
  N   N20       1.0  0.35911  0.58983  0.19239  1.0000
  O   O53       1.0  0.35379  0.60721  0.13768  1.0000
  O   O54       1.0  0.37726  0.58056  0.15512  1.0000
  C   C126      1.0  0.47073  0.76217  0.32991  1.0000
  C   C127      1.0  0.43645  0.74551  0.34867  1.0000
  C   C128      1.0  0.42034  0.71101  0.35871  1.0000
  H   H51       1.0  0.48185  0.78709  0.33540  1.0000
  H   H52       1.0  0.39534  0.69854  0.37108  1.0000
  C   C129      1.0  0.25050  0.71112  0.32932  1.0000
  C   C130      1.0  0.26718  0.69343  0.34681  1.0000
  C   C131      1.0  0.30171  0.71172  0.35586  1.0000
  H   H53       1.0  0.31416  0.69914  0.36786  1.0000
  C   C132      1.0  0.24805  0.81669  0.34762  1.0000
  C   C133      1.0  0.26473  0.79903  0.32989  1.0000
  H   H54       1.0  0.28964  0.81276  0.33612  1.0000
  C   C134      1.0  0.30160  0.54192  0.32989  1.0000
  C   C135      1.0  0.31926  0.57623  0.34797  1.0000
  C   C136      1.0  0.30095  0.59244  0.35725  1.0000
  H   H55       1.0  0.31534  0.53075  0.33603  1.0000
  H   H56       1.0  0.31352  0.61747  0.36937  1.0000
  C   C137      1.0  0.25816  0.86535  0.43416  1.0000
  C   C138      1.0  0.25852  0.89578  0.43078  1.0000
  H   H57       1.0  0.25152  0.90331  0.48732  1.0000
  N   N21       1.0  0.25028  0.84701  0.51560  1.0000
  O   O55       1.0  0.27125  0.86274  0.57583  1.0000
  C   C139      1.0  0.39760  0.75557  0.43409  1.0000
  C   C140      1.0  0.36754  0.75591  0.42967  1.0000
  H   H58       1.0  0.35287  0.74906  0.48596  1.0000
  N   N22       1.0  0.40787  0.74780  0.51603  1.0000
  O   O56       1.0  0.41296  0.76885  0.57588  1.0000
  O   O57       1.0  0.38696  0.71967  0.54519  1.0000
  C   C141      1.0  0.25702  0.64475  0.43335  1.0000
  C   C142      1.0  0.25677  0.61438  0.42970  1.0000
  H   H59       1.0  0.26367  0.60675  0.48625  1.0000
  N   N23       1.0  0.26481  0.66303  0.51490  1.0000
  O   O58       1.0  0.29298  0.67042  0.54404  1.0000
  C   C143      1.0  0.36796  0.61484  0.43438  1.0000
  C   C144      1.0  0.39837  0.64491  0.43092  1.0000
  H   H60       1.0  0.40592  0.65946  0.48743  1.0000
  N   N24       1.0  0.34964  0.60438  0.51589  1.0000
  O   O59       1.0  0.36540  0.59916  0.57606  1.0000
  O   O60       1.0  0.34230  0.62521  0.54499  1.0000
  C   C145      1.0  0.98955  0.24588  0.31574  1.0000
  C   C146      1.0  0.93613  0.19264  0.34068  1.0000
  C   C147      1.0  0.96963  0.21021  0.31106  1.0000
  C   C148      1.0  0.52563  0.26429  0.31535  1.0000
  C   C149      1.0  0.54555  0.29997  0.31048  1.0000
  C   C150      1.0  0.57916  0.31754  0.33915  1.0000
  O   O61       1.0  0.98116  0.19055  0.27909  1.0000
  O   O62       1.0  0.53396  0.31966  0.27916  1.0000
  H   H61       1.0  0.98513  0.19529  0.21431  1.0000
  H   H62       1.0  0.52990  0.31499  0.21438  1.0000
  C   C151      1.0  0.76682  0.24625  0.31535  1.0000
  C   C152      1.0  0.82006  0.24593  0.33871  1.0000
  C   C153      1.0  0.80249  0.26200  0.31031  1.0000
  C   C154      1.0  0.74843  0.26392  0.31553  1.0000
  C   C155      1.0  0.71276  0.24819  0.31033  1.0000
  C   C156      1.0  0.69517  0.26421  0.33897  1.0000
  O   O63       1.0  0.82215  0.29327  0.27887  1.0000
  O   O64       1.0  0.69313  0.21695  0.27860  1.0000
  H   H63       1.0  0.81744  0.29264  0.21411  1.0000
  H   H64       1.0  0.69789  0.21766  0.21386  1.0000
  C   C157      1.0  0.76648  0.02312  0.31564  1.0000
  C   C158      1.0  0.76678  0.07665  0.33939  1.0000
  C   C159      1.0  0.75076  0.04306  0.31058  1.0000
  C   C160      1.0  0.74879  0.48704  0.31580  1.0000
  C   C161      1.0  0.76454  0.46712  0.31110  1.0000
  C   C162      1.0  0.74859  0.43361  0.34065  1.0000
  O   O65       1.0  0.71953  0.03148  0.27888  1.0000
  O   O66       1.0  0.79575  0.47865  0.27923  1.0000
  H   H65       1.0  0.72022  0.02741  0.21414  1.0000
  H   H66       1.0  0.79501  0.48268  0.21448  1.0000
  C   C163      1.0  0.66022  0.24942  0.34782  1.0000
  C   C164      1.0  0.63985  0.24114  0.27073  1.0000
  C   C165      1.0  0.60958  0.24163  0.27232  1.0000
  C   C166      1.0  0.59844  0.24924  0.35357  1.0000
  H   H67       1.0  0.64931  0.23989  0.20959  1.0000
  N   N25       1.0  0.59247  0.23881  0.19089  1.0000
  O   O67       1.0  0.60986  0.26163  0.13650  1.0000
  O   O68       1.0  0.58323  0.21147  0.15316  1.0000
  C   C167      1.0  0.76331  0.41339  0.34945  1.0000
  C   C168      1.0  0.77181  0.40148  0.27237  1.0000
  C   C169      1.0  0.77131  0.37072  0.27360  1.0000
  C   C170      1.0  0.76347  0.35174  0.35445  1.0000
  H   H68       1.0  0.77319  0.41231  0.21134  1.0000
  N   N26       1.0  0.77425  0.35655  0.19208  1.0000
  O   O69       1.0  0.75153  0.35125  0.13746  1.0000
  O   O70       1.0  0.80165  0.37470  0.15475  1.0000
  C   C171      1.0  0.59930  0.35247  0.34824  1.0000
  C   C172      1.0  0.61151  0.37306  0.27160  1.0000
  C   C173      1.0  0.64219  0.40340  0.27360  1.0000
  C   C174      1.0  0.66098  0.41423  0.35478  1.0000
  H   H69       1.0  0.60071  0.36384  0.21040  1.0000
  N   N27       1.0  0.65649  0.42078  0.19253  1.0000
  O   O71       1.0  0.66196  0.40357  0.13754  1.0000
  O   O72       1.0  0.63836  0.43008  0.15534  1.0000
  C   C175      1.0  0.85500  0.26076  0.34786  1.0000
  C   C176      1.0  0.87557  0.26903  0.27121  1.0000
  C   C177      1.0  0.90588  0.26864  0.27338  1.0000
  C   C178      1.0  0.91673  0.26085  0.35484  1.0000
  H   H70       1.0  0.86628  0.27047  0.20998  1.0000
  N   N28       1.0  0.92322  0.27158  0.19231  1.0000
  O   O73       1.0  0.90598  0.24882  0.13757  1.0000
  O   O74       1.0  0.93253  0.29895  0.15477  1.0000
  C   C179      1.0  0.75202  0.09683  0.34828  1.0000
  C   C180      1.0  0.74365  0.10884  0.27116  1.0000
  C   C181      1.0  0.74409  0.13958  0.27254  1.0000
  C   C182      1.0  0.75173  0.15837  0.35367  1.0000
  H   H71       1.0  0.74235  0.09808  0.21008  1.0000
  N   N29       1.0  0.74120  0.15380  0.19106  1.0000
  O   O75       1.0  0.76400  0.15920  0.13660  1.0000
  O   O76       1.0  0.71386  0.13565  0.15348  1.0000
  C   C183      1.0  0.91592  0.15769  0.34949  1.0000
  C   C184      1.0  0.90404  0.13725  0.27247  1.0000
  C   C185      1.0  0.87328  0.10698  0.27384  1.0000
  C   C186      1.0  0.85431  0.09588  0.35472  1.0000
  H   H72       1.0  0.91484  0.14668  0.21142  1.0000
  N   N30       1.0  0.85911  0.08983  0.19239  1.0000
  O   O77       1.0  0.85379  0.10721  0.13768  1.0000
  O   O78       1.0  0.87726  0.08056  0.15512  1.0000
  C   C187      1.0  0.97073  0.26217  0.32991  1.0000
  C   C188      1.0  0.93646  0.24551  0.34867  1.0000
  C   C189      1.0  0.92034  0.21101  0.35871  1.0000
  H   H73       1.0  0.98184  0.28709  0.33540  1.0000
  H   H74       1.0  0.89534  0.19854  0.37108  1.0000
  C   C190      1.0  0.59503  0.29918  0.35610  1.0000
  C   C191      1.0  0.57881  0.26465  0.34684  1.0000
  C   C192      1.0  0.54445  0.24798  0.32922  1.0000
  H   H75       1.0  0.62005  0.31162  0.36827  1.0000
  H   H76       1.0  0.53329  0.22308  0.33562  1.0000
  C   C193      1.0  0.75050  0.21112  0.32932  1.0000
  C   C194      1.0  0.76718  0.19343  0.34681  1.0000
  C   C195      1.0  0.80171  0.21172  0.35586  1.0000
  H   H77       1.0  0.72560  0.19740  0.33595  1.0000
  H   H78       1.0  0.81416  0.19914  0.36786  1.0000
  C   C196      1.0  0.71352  0.29839  0.35661  1.0000
  C   C197      1.0  0.74805  0.31669  0.34762  1.0000
  C   C198      1.0  0.76473  0.29903  0.32989  1.0000
  H   H79       1.0  0.70105  0.31095  0.36872  1.0000
  H   H80       1.0  0.78964  0.31276  0.33612  1.0000
  C   C199      1.0  0.80160  0.04192  0.32989  1.0000
  C   C200      1.0  0.81926  0.07623  0.34797  1.0000
  C   C201      1.0  0.80095  0.09245  0.35725  1.0000
  H   H81       1.0  0.81534  0.03074  0.33603  1.0000
  H   H82       1.0  0.81351  0.11747  0.36937  1.0000
  C   C202      1.0  0.71442  0.41782  0.35840  1.0000
  C   C203      1.0  0.69605  0.43397  0.34871  1.0000
  C   C204      1.0  0.71367  0.46824  0.32987  1.0000
  H   H83       1.0  0.70187  0.39282  0.37088  1.0000
  H   H84       1.0  0.69991  0.47939  0.33567  1.0000
  C   C205      1.0  0.61738  0.25443  0.43315  1.0000
  C   C206      1.0  0.64747  0.25413  0.42939  1.0000
  H   H85       1.0  0.66202  0.26098  0.48590  1.0000
  N   N31       1.0  0.60693  0.26219  0.51479  1.0000
  O   O79       1.0  0.60175  0.24116  0.57479  1.0000
  O   O80       1.0  0.62775  0.29034  0.54403  1.0000
  C   C207      1.0  0.75816  0.36536  0.43416  1.0000
  C   C208      1.0  0.75852  0.39578  0.43078  1.0000
  H   H86       1.0  0.75152  0.40331  0.48732  1.0000
  N   N32       1.0  0.75028  0.34701  0.51560  1.0000
  O   O81       1.0  0.77125  0.36274  0.57583  1.0000
  O   O82       1.0  0.72211  0.33966  0.54468  1.0000
  C   C209      1.0  0.64721  0.39508  0.43409  1.0000
  C   C210      1.0  0.61678  0.36503  0.42993  1.0000
  H   H87       1.0  0.60909  0.35037  0.48621  1.0000
  N   N33       1.0  0.66532  0.40533  0.51594  1.0000
  O   O83       1.0  0.64943  0.41045  0.57594  1.0000
  O   O84       1.0  0.67255  0.38441  0.54497  1.0000
  C   C211      1.0  0.89760  0.25557  0.43409  1.0000
  C   C212      1.0  0.86754  0.25591  0.42967  1.0000
  H   H88       1.0  0.85287  0.24906  0.48596  1.0000
  N   N34       1.0  0.90787  0.24780  0.51603  1.0000
  O   O85       1.0  0.91296  0.26885  0.57588  1.0000
  O   O86       1.0  0.88696  0.21967  0.54519  1.0000
  C   C213      1.0  0.75702  0.14475  0.43335  1.0000
  C   C214      1.0  0.75677  0.11439  0.42970  1.0000
  H   H89       1.0  0.76367  0.10675  0.48625  1.0000
  N   N35       1.0  0.76481  0.16303  0.51490  1.0000
  O   O87       1.0  0.74383  0.14720  0.57501  1.0000
  O   O88       1.0  0.79299  0.17042  0.54404  1.0000
  C   C215      1.0  0.86796  0.11484  0.43438  1.0000
  C   C216      1.0  0.89837  0.14491  0.43092  1.0000
  H   H90       1.0  0.90592  0.15946  0.48743  1.0000
  N   N36       1.0  0.84964  0.10438  0.51589  1.0000
  O   O89       1.0  0.86541  0.09916  0.57606  1.0000
  O   O90       1.0  0.84230  0.12521  0.54499  1.0000
  C   C217      1.0  0.98955  0.74588  0.31574  1.0000
  C   C218      1.0  0.93613  0.69264  0.34068  1.0000
  C   C219      1.0  0.96963  0.71020  0.31106  1.0000
  C   C220      1.0  0.52563  0.76429  0.31535  1.0000
  C   C221      1.0  0.54555  0.79997  0.31048  1.0000
  C   C222      1.0  0.57916  0.81754  0.33915  1.0000
  O   O91       1.0  0.98116  0.69054  0.27909  1.0000
  O   O92       1.0  0.53395  0.81965  0.27916  1.0000
  H   H91       1.0  0.98513  0.69529  0.21431  1.0000
  H   H92       1.0  0.52990  0.81499  0.21438  1.0000
  C   C223      1.0  0.76682  0.74625  0.31535  1.0000
  C   C224      1.0  0.82006  0.74593  0.33871  1.0000
  C   C225      1.0  0.80249  0.76200  0.31031  1.0000
  C   C226      1.0  0.74843  0.76392  0.31553  1.0000
  C   C227      1.0  0.71276  0.74818  0.31033  1.0000
  C   C228      1.0  0.69517  0.76421  0.33897  1.0000
  O   O93       1.0  0.82215  0.79327  0.27887  1.0000
  O   O94       1.0  0.69313  0.71695  0.27860  1.0000
  H   H93       1.0  0.81744  0.79264  0.21411  1.0000
  H   H94       1.0  0.69789  0.71766  0.21386  1.0000
  C   C229      1.0  0.76648  0.52312  0.31564  1.0000
  C   C230      1.0  0.76678  0.57665  0.33939  1.0000
  C   C231      1.0  0.75076  0.54306  0.31058  1.0000
  C   C232      1.0  0.74879  0.98704  0.31580  1.0000
  C   C233      1.0  0.76454  0.96711  0.31110  1.0000
  C   C234      1.0  0.74859  0.93361  0.34065  1.0000
  O   O95       1.0  0.71953  0.53148  0.27888  1.0000
  O   O96       1.0  0.79575  0.97865  0.27923  1.0000
  H   H95       1.0  0.72022  0.52741  0.21414  1.0000
  H   H96       1.0  0.79501  0.98268  0.21448  1.0000
  C   C235      1.0  0.66022  0.74942  0.34782  1.0000
  C   C236      1.0  0.63985  0.74114  0.27073  1.0000
  C   C237      1.0  0.60958  0.74163  0.27232  1.0000
  C   C238      1.0  0.59844  0.74923  0.35357  1.0000
  H   H97       1.0  0.64931  0.73989  0.20959  1.0000
  N   N37       1.0  0.59247  0.73881  0.19089  1.0000
  O   O97       1.0  0.60986  0.76163  0.13650  1.0000
  O   O98       1.0  0.58323  0.71147  0.15316  1.0000
  C   C239      1.0  0.76331  0.91339  0.34945  1.0000
  C   C240      1.0  0.77181  0.90148  0.27237  1.0000
  C   C241      1.0  0.77131  0.87072  0.27360  1.0000
  C   C242      1.0  0.76347  0.85174  0.35445  1.0000
  H   H98       1.0  0.77319  0.91231  0.21134  1.0000
  N   N38       1.0  0.77425  0.85655  0.19208  1.0000
  O   O99       1.0  0.75153  0.85125  0.13746  1.0000
  O   O100      1.0  0.80165  0.87470  0.15475  1.0000
  C   C243      1.0  0.59930  0.85247  0.34824  1.0000
  C   C244      1.0  0.61151  0.87306  0.27160  1.0000
  C   C245      1.0  0.64219  0.90340  0.27360  1.0000
  C   C246      1.0  0.66098  0.91423  0.35478  1.0000
  H   H99       1.0  0.60071  0.86384  0.21040  1.0000
  N   N39       1.0  0.65649  0.92078  0.19253  1.0000
  O   O101      1.0  0.66196  0.90357  0.13754  1.0000
  O   O102      1.0  0.63836  0.93008  0.15534  1.0000
  C   C247      1.0  0.85500  0.76076  0.34786  1.0000
  C   C248      1.0  0.87557  0.76903  0.27121  1.0000
  C   C249      1.0  0.90588  0.76864  0.27338  1.0000
  C   C250      1.0  0.91673  0.76085  0.35484  1.0000
  H   H100      1.0  0.86628  0.77046  0.20998  1.0000
  N   N40       1.0  0.92322  0.77158  0.19231  1.0000
  O   O103      1.0  0.90598  0.74882  0.13757  1.0000
  O   O104      1.0  0.93253  0.79895  0.15477  1.0000
  C   C251      1.0  0.75202  0.59683  0.34828  1.0000
  C   C252      1.0  0.74365  0.60884  0.27116  1.0000
  C   C253      1.0  0.74409  0.63958  0.27254  1.0000
  C   C254      1.0  0.75173  0.65837  0.35367  1.0000
  H   H101      1.0  0.74235  0.59808  0.21008  1.0000
  N   N41       1.0  0.74120  0.65380  0.19106  1.0000
  O   O105      1.0  0.76400  0.65920  0.13660  1.0000
  O   O106      1.0  0.71386  0.63565  0.15348  1.0000
  C   C255      1.0  0.91592  0.65768  0.34949  1.0000
  C   C256      1.0  0.90404  0.63725  0.27247  1.0000
  C   C257      1.0  0.87328  0.60698  0.27384  1.0000
  C   C258      1.0  0.85431  0.59588  0.35472  1.0000
  H   H102      1.0  0.91484  0.64668  0.21142  1.0000
  N   N42       1.0  0.85911  0.58983  0.19239  1.0000
  O   O107      1.0  0.85379  0.60721  0.13768  1.0000
  O   O108      1.0  0.87726  0.58056  0.15512  1.0000
  C   C259      1.0  0.97073  0.76217  0.32991  1.0000
  C   C260      1.0  0.93646  0.74551  0.34867  1.0000
  C   C261      1.0  0.92034  0.71101  0.35871  1.0000
  H   H103      1.0  0.98184  0.78709  0.33540  1.0000
  H   H104      1.0  0.89534  0.69854  0.37108  1.0000
  C   C262      1.0  0.59503  0.79918  0.35610  1.0000
  C   C263      1.0  0.57881  0.76465  0.34684  1.0000
  C   C264      1.0  0.54445  0.74798  0.32922  1.0000
  H   H105      1.0  0.62005  0.81162  0.36827  1.0000
  H   H106      1.0  0.53329  0.72308  0.33562  1.0000
  C   C265      1.0  0.75050  0.71112  0.32932  1.0000
  C   C266      1.0  0.76718  0.69343  0.34681  1.0000
  C   C267      1.0  0.80171  0.71172  0.35586  1.0000
  H   H107      1.0  0.72560  0.69740  0.33595  1.0000
  H   H108      1.0  0.81416  0.69914  0.36786  1.0000
  C   C268      1.0  0.71352  0.79839  0.35661  1.0000
  C   C269      1.0  0.74805  0.81669  0.34762  1.0000
  C   C270      1.0  0.76473  0.79903  0.32989  1.0000
  H   H109      1.0  0.70105  0.81095  0.36872  1.0000
  H   H110      1.0  0.78964  0.81276  0.33612  1.0000
  C   C271      1.0  0.80160  0.54192  0.32989  1.0000
  C   C272      1.0  0.81926  0.57623  0.34797  1.0000
  C   C273      1.0  0.80095  0.59244  0.35725  1.0000
  H   H111      1.0  0.81534  0.53075  0.33603  1.0000
  H   H112      1.0  0.81351  0.61747  0.36937  1.0000
  C   C274      1.0  0.71442  0.91782  0.35840  1.0000
  C   C275      1.0  0.69605  0.93397  0.34871  1.0000
  C   C276      1.0  0.71367  0.96823  0.32987  1.0000
  H   H113      1.0  0.70187  0.89282  0.37088  1.0000
  H   H114      1.0  0.69990  0.97939  0.33567  1.0000
  C   C277      1.0  0.61738  0.75443  0.43315  1.0000
  C   C278      1.0  0.64747  0.75413  0.42939  1.0000
  H   H115      1.0  0.66202  0.76098  0.48590  1.0000
  N   N43       1.0  0.60693  0.76219  0.51479  1.0000
  O   O109      1.0  0.60175  0.74116  0.57479  1.0000
  O   O110      1.0  0.62775  0.79034  0.54403  1.0000
  C   C279      1.0  0.75816  0.86535  0.43416  1.0000
  C   C280      1.0  0.75852  0.89578  0.43078  1.0000
  H   H116      1.0  0.75152  0.90331  0.48732  1.0000
  N   N44       1.0  0.75028  0.84701  0.51560  1.0000
  O   O111      1.0  0.77125  0.86274  0.57583  1.0000
  O   O112      1.0  0.72211  0.83966  0.54468  1.0000
  C   C281      1.0  0.64721  0.89507  0.43409  1.0000
  C   C282      1.0  0.61677  0.86503  0.42993  1.0000
  H   H117      1.0  0.60908  0.85037  0.48621  1.0000
  N   N45       1.0  0.66532  0.90533  0.51594  1.0000
  O   O113      1.0  0.64943  0.91045  0.57594  1.0000
  O   O114      1.0  0.67255  0.88441  0.54497  1.0000
  C   C283      1.0  0.89760  0.75557  0.43409  1.0000
  C   C284      1.0  0.86754  0.75591  0.42967  1.0000
  H   H118      1.0  0.85287  0.74906  0.48596  1.0000
  N   N46       1.0  0.90787  0.74780  0.51603  1.0000
  O   O115      1.0  0.91296  0.76885  0.57588  1.0000
  O   O116      1.0  0.88696  0.71967  0.54519  1.0000
  C   C285      1.0  0.75702  0.64475  0.43335  1.0000
  C   C286      1.0  0.75677  0.61438  0.42970  1.0000
  H   H119      1.0  0.76367  0.60675  0.48625  1.0000
  N   N47       1.0  0.76481  0.66303  0.51490  1.0000
  O   O117      1.0  0.74383  0.64720  0.57501  1.0000
  O   O118      1.0  0.79299  0.67042  0.54404  1.0000
  C   C287      1.0  0.86796  0.61484  0.43438  1.0000
  C   C288      1.0  0.89837  0.64491  0.43092  1.0000
  H   H120      1.0  0.90592  0.65946  0.48743  1.0000
  N   N48       1.0  0.84964  0.60438  0.51589  1.0000
  O   O119      1.0  0.86540  0.59916  0.57606  1.0000
  O   O120      1.0  0.84230  0.62521  0.54499  1.0000
