data_image0
_chemical_formula_structural       C3NC3NC5NC5NC36H26N4C3NC3NC5NC5NC36H26N4C3NC3NC5NC5NC36H26N4C3H5CHC3H5CHC3H5CHC3H5CHC3H5CHC3H5CHC16H16C16H16C16H16C3NC2NCH2CHCHC3NC2NCH2CHCHC3NC2NCH2CHCHC3NC2NCH2CHCHC3NC2NCH2CHCHC3NC2NCH2CHCH
_chemical_formula_sum              "C276 N36 H186"
_cell_length_a       67.7818
_cell_length_b       67.7818
_cell_length_c       14.9223
_cell_angle_alpha    89.8354
_cell_angle_beta     90.1646
_cell_angle_gamma    120

_space_group_name_H-M_alt    "P 1"
_space_group_IT_number       1

loop_
  _space_group_symop_operation_xyz
  'x, y, z'

loop_
  _atom_site_type_symbol
  _atom_site_label
  _atom_site_symmetry_multiplicity
  _atom_site_fract_x
  _atom_site_fract_y
  _atom_site_fract_z
  _atom_site_occupancy
  C   C1        1.0  0.04561  0.50586  0.32192  1.0000
  C   C2        1.0  0.02207  0.49402  0.32125  1.0000
  C   C3        1.0  0.01452  0.50980  0.31946  1.0000
  N   N1        1.0  0.03373  0.53053  0.31871  1.0000
  C   C4        1.0  0.05302  0.52916  0.32016  1.0000
  C   C5        1.0  0.07621  0.54690  0.32013  1.0000
  C   C6        1.0  0.08355  0.57056  0.31902  1.0000
  N   N2        1.0  0.07061  0.58059  0.31914  1.0000
  C   C7        1.0  0.08340  0.60359  0.31816  1.0000
  C   C8        1.0  0.10607  0.60862  0.31737  1.0000
  C   C9        1.0  0.10616  0.58832  0.31770  1.0000
  C   C10       1.0  0.07589  0.61976  0.31850  1.0000
  C   C11       1.0  0.05265  0.61416  0.31942  1.0000
  N   N3        1.0  0.03345  0.59342  0.31865  1.0000
  C   C12       1.0  0.01416  0.59480  0.32006  1.0000
  C   C13       1.0  0.02156  0.61809  0.32182  1.0000
  C   C14       1.0  0.04511  0.62994  0.32120  1.0000
  C   C15       1.0  0.99097  0.57706  0.32001  1.0000
  C   C16       1.0  0.98362  0.55340  0.31898  1.0000
  N   N4        1.0  0.99657  0.54337  0.31904  1.0000
  C   C17       1.0  0.98377  0.52038  0.31815  1.0000
  C   C18       1.0  0.96110  0.51535  0.31754  1.0000
  C   C19       1.0  0.96102  0.53566  0.31784  1.0000
  C   C20       1.0  0.99128  0.50420  0.31851  1.0000
  C   C21       1.0  0.97408  0.48070  0.31873  1.0000
  C   C22       1.0  0.93597  0.43527  0.32028  1.0000
  C   C23       1.0  0.94507  0.44713  0.23870  1.0000
  C   C24       1.0  0.96376  0.46950  0.23781  1.0000
  C   C25       1.0  0.91607  0.41302  0.32117  1.0000
  C   C26       1.0  0.91285  0.39624  0.25719  1.0000
  C   C27       1.0  0.89290  0.37470  0.25642  1.0000
  C   C28       1.0  0.87552  0.36902  0.32007  1.0000
  C   C29       1.0  0.97366  0.58321  0.32192  1.0000
  C   C30       1.0  0.93589  0.59109  0.32421  1.0000
  C   C31       1.0  0.94699  0.59165  0.24303  1.0000
  C   C32       1.0  0.96552  0.58771  0.24169  1.0000
  C   C33       1.0  0.91629  0.59397  0.32515  1.0000
  C   C34       1.0  0.87627  0.59829  0.33051  1.0000
  C   C35       1.0  0.87938  0.58586  0.26149  1.0000
  C   C36       1.0  0.89904  0.58380  0.25888  1.0000
  C   C37       1.0  0.09307  0.64326  0.31875  1.0000
  C   C38       1.0  0.10314  0.65462  0.23777  1.0000
  C   C39       1.0  0.12171  0.67706  0.23860  1.0000
  C   C40       1.0  0.13091  0.68883  0.32018  1.0000
  C   C41       1.0  0.15064  0.71121  0.32097  1.0000
  C   C42       1.0  0.19078  0.75551  0.31985  1.0000
  C   C43       1.0  0.17320  0.74971  0.25668  1.0000
  C   C44       1.0  0.15346  0.72801  0.25746  1.0000
  C   C45       1.0  0.09353  0.54077  0.32212  1.0000
  C   C46       1.0  0.10159  0.53630  0.24195  1.0000
  C   C47       1.0  0.13158  0.53331  0.32435  1.0000
  C   C48       1.0  0.12025  0.53256  0.24327  1.0000
  C   C49       1.0  0.15137  0.53073  0.32521  1.0000
  C   C50       1.0  0.16845  0.54102  0.25857  1.0000
  C   C51       1.0  0.18831  0.53929  0.26110  1.0000
  C   C52       1.0  0.19179  0.52710  0.33048  1.0000
  H   H1        1.0  0.20053  0.54761  0.21337  1.0000
  H   H2        1.0  0.16702  0.55066  0.20886  1.0000
  H   H3        1.0  0.12557  0.52938  0.18374  1.0000
  H   H4        1.0  0.09425  0.53622  0.18185  1.0000
  H   H5        1.0  0.05551  0.49841  0.32342  1.0000
  H   H6        1.0  0.01226  0.47666  0.32222  1.0000
  H   H7        1.0  0.03367  0.54466  0.31678  1.0000
  H   H8        1.0  0.03350  0.57930  0.31672  1.0000
  H   H9        1.0  0.12055  0.58703  0.31704  1.0000
  H   H10       1.0  0.12038  0.62436  0.31667  1.0000
  H   H11       1.0  0.09747  0.64638  0.17775  1.0000
  H   H12       1.0  0.12909  0.68436  0.17871  1.0000
  H   H13       1.0  0.05491  0.64729  0.32219  1.0000
  H   H14       1.0  0.01167  0.62555  0.32330  1.0000
  H   H15       1.0  0.94679  0.49962  0.31703  1.0000
  H   H16       1.0  0.94663  0.53695  0.31735  1.0000
  H   H17       1.0  0.97274  0.58770  0.18155  1.0000
  H   H18       1.0  0.94163  0.59487  0.18348  1.0000
  H   H19       1.0  0.90020  0.57400  0.20947  1.0000
  H   H20       1.0  0.86704  0.57764  0.21400  1.0000
  H   H21       1.0  0.96932  0.47782  0.17783  1.0000
  H   H22       1.0  0.93749  0.43998  0.17888  1.0000
  H   H23       1.0  0.89116  0.36311  0.20872  1.0000
  H   H24       1.0  0.92512  0.39950  0.21044  1.0000
  H   H25       1.0  0.14102  0.72467  0.21113  1.0000
  H   H26       1.0  0.17465  0.76133  0.20937  1.0000
  N   N5        1.0  0.85667  0.34865  0.31331  1.0000
  N   N6        1.0  0.21081  0.52603  0.33995  1.0000
  N   N7        1.0  0.20941  0.77606  0.31316  1.0000
  N   N8        1.0  0.85748  0.59976  0.33988  1.0000
  C   C53       1.0  0.59117  0.63304  0.32389  1.0000
  C   C54       1.0  0.60301  0.62133  0.32314  1.0000
  C   C55       1.0  0.58723  0.59801  0.32134  1.0000
  N   N9        1.0  0.56649  0.59649  0.32060  1.0000
  C   C56       1.0  0.56788  0.61716  0.32212  1.0000
  C   C57       1.0  0.55014  0.62261  0.32214  1.0000
  C   C58       1.0  0.52648  0.60630  0.32100  1.0000
  N   N10       1.0  0.51644  0.58332  0.32111  1.0000
  C   C59       1.0  0.49345  0.57313  0.32007  1.0000
  C   C60       1.0  0.48842  0.59077  0.31925  1.0000
  C   C61       1.0  0.50873  0.61116  0.31963  1.0000
  C   C62       1.0  0.47727  0.54944  0.32042  1.0000
  C   C63       1.0  0.48286  0.53180  0.32137  1.0000
  N   N11       1.0  0.50360  0.53333  0.32058  1.0000
  C   C64       1.0  0.50221  0.51266  0.32204  1.0000
  C   C65       1.0  0.47892  0.49677  0.32387  1.0000
  C   C66       1.0  0.46708  0.50848  0.32320  1.0000
  C   C67       1.0  0.51995  0.50720  0.32199  1.0000
  C   C68       1.0  0.54361  0.52351  0.32092  1.0000
  N   N12       1.0  0.55365  0.54649  0.32100  1.0000
  C   C69       1.0  0.57664  0.55668  0.32005  1.0000
  C   C70       1.0  0.58166  0.53904  0.31935  1.0000
  C   C71       1.0  0.56135  0.51865  0.31969  1.0000
  C   C72       1.0  0.59282  0.58037  0.32037  1.0000
  C   C73       1.0  0.61631  0.58666  0.32051  1.0000
  C   C74       1.0  0.66174  0.59397  0.32178  1.0000
  C   C75       1.0  0.64988  0.59138  0.24027  1.0000
  C   C76       1.0  0.62753  0.58774  0.23949  1.0000
  C   C77       1.0  0.68399  0.59632  0.32251  1.0000
  C   C78       1.0  0.70077  0.61001  0.25861  1.0000
  C   C79       1.0  0.72231  0.61161  0.25766  1.0000
  C   C80       1.0  0.72799  0.59976  0.32103  1.0000
  C   C81       1.0  0.51379  0.48374  0.32394  1.0000
  C   C82       1.0  0.50591  0.43809  0.32629  1.0000
  C   C83       1.0  0.50534  0.44872  0.24510  1.0000
  C   C84       1.0  0.50927  0.47119  0.24374  1.0000
  C   C85       1.0  0.50304  0.41561  0.32727  1.0000
  C   C86       1.0  0.49872  0.37126  0.33263  1.0000
  C   C87       1.0  0.51112  0.38687  0.26353  1.0000
  C   C88       1.0  0.51321  0.40862  0.26099  1.0000
  C   C89       1.0  0.45377  0.54314  0.32057  1.0000
  C   C90       1.0  0.44241  0.54188  0.23950  1.0000
  C   C91       1.0  0.41998  0.53803  0.24023  1.0000
  C   C92       1.0  0.40820  0.53540  0.32172  1.0000
  C   C93       1.0  0.38582  0.53273  0.32236  1.0000
  C   C94       1.0  0.34151  0.52857  0.32077  1.0000
  C   C95       1.0  0.34733  0.51683  0.25788  1.0000
  C   C96       1.0  0.36903  0.51878  0.25888  1.0000
  C   C97       1.0  0.55628  0.64607  0.32418  1.0000
  C   C98       1.0  0.56077  0.65871  0.24404  1.0000
  C   C99       1.0  0.56374  0.69157  0.32647  1.0000
  C   C100      1.0  0.56451  0.68111  0.24538  1.0000
  C   C101      1.0  0.56630  0.71393  0.32736  1.0000
  C   C102      1.0  0.55603  0.72081  0.26069  1.0000
  C   C103      1.0  0.55775  0.74240  0.26325  1.0000
  C   C104      1.0  0.56992  0.75797  0.33267  1.0000
  H   H27       1.0  0.54944  0.74636  0.21549  1.0000
  H   H28       1.0  0.54640  0.70981  0.21095  1.0000
  H   H29       1.0  0.56770  0.68970  0.18587  1.0000
  H   H30       1.0  0.56085  0.65152  0.18392  1.0000
  H   H31       1.0  0.59863  0.65039  0.32545  1.0000
  H   H32       1.0  0.62037  0.62888  0.32417  1.0000
  H   H33       1.0  0.55237  0.58231  0.31874  1.0000
  H   H34       1.0  0.51772  0.54751  0.31856  1.0000
  H   H35       1.0  0.51002  0.62684  0.31896  1.0000
  H   H36       1.0  0.47269  0.58935  0.31850  1.0000
  H   H37       1.0  0.45066  0.54449  0.17952  1.0000
  H   H38       1.0  0.41268  0.53811  0.18024  1.0000
  H   H39       1.0  0.44973  0.50093  0.32428  1.0000
  H   H40       1.0  0.47146  0.47942  0.32541  1.0000
  H   H41       1.0  0.59739  0.54045  0.31874  1.0000
  H   H42       1.0  0.56005  0.50297  0.31913  1.0000
  H   H43       1.0  0.50927  0.47849  0.18360  1.0000
  H   H44       1.0  0.50209  0.44020  0.18558  1.0000
  H   H45       1.0  0.52298  0.41962  0.21147  1.0000
  H   H46       1.0  0.51934  0.38281  0.21604  1.0000
  H   H47       1.0  0.61920  0.58510  0.17954  1.0000
  H   H48       1.0  0.65705  0.59113  0.18036  1.0000
  H   H49       1.0  0.73390  0.62157  0.21002  1.0000
  H   H50       1.0  0.69751  0.61914  0.21210  1.0000
  H   H51       1.0  0.37238  0.50972  0.21272  1.0000
  H   H52       1.0  0.33572  0.50669  0.21059  1.0000
  N   N13       1.0  0.74836  0.60129  0.31404  1.0000
  N   N14       1.0  0.57098  0.77804  0.34214  1.0000
  N   N15       1.0  0.32097  0.52666  0.31388  1.0000
  N   N16       1.0  0.49725  0.35100  0.34201  1.0000
  C   C105      1.0  0.46399  0.05143  0.32503  1.0000
  C   C106      1.0  0.47570  0.07497  0.32446  1.0000
  C   C107      1.0  0.49902  0.08252  0.32267  1.0000
  N   N17       1.0  0.50054  0.06331  0.32184  1.0000
  C   C108      1.0  0.47987  0.04402  0.32322  1.0000
  C   C109      1.0  0.47442  0.02082  0.32308  1.0000
  C   C110      1.0  0.49073  0.01348  0.32204  1.0000
  N   N18       1.0  0.51371  0.02642  0.32229  1.0000
  C   C111      1.0  0.52390  0.01362  0.32132  1.0000
  C   C112      1.0  0.50626  0.99096  0.32043  1.0000
  C   C113      1.0  0.48587  0.99087  0.32066  1.0000
  C   C114      1.0  0.54759  0.02113  0.32177  1.0000
  C   C115      1.0  0.56523  0.04436  0.32266  1.0000
  N   N19       1.0  0.56370  0.06357  0.32175  1.0000
  C   C116      1.0  0.58437  0.08285  0.32309  1.0000
  C   C117      1.0  0.60026  0.07545  0.32495  1.0000
  C   C118      1.0  0.58855  0.05190  0.32448  1.0000
  C   C119      1.0  0.58982  0.10605  0.32288  1.0000
  C   C120      1.0  0.57351  0.11340  0.32192  1.0000
  N   N20       1.0  0.55053  0.10046  0.32217  1.0000
  C   C121      1.0  0.54035  0.11326  0.32130  1.0000
  C   C122      1.0  0.55799  0.13592  0.32048  1.0000
  C   C123      1.0  0.57838  0.13601  0.32064  1.0000
  C   C124      1.0  0.51665  0.10575  0.32175  1.0000
  C   C125      1.0  0.51037  0.12296  0.32198  1.0000
  C   C126      1.0  0.50305  0.16106  0.32349  1.0000
  C   C127      1.0  0.50561  0.15191  0.24192  1.0000
  C   C128      1.0  0.50925  0.13319  0.24103  1.0000
  C   C129      1.0  0.50070  0.18097  0.32434  1.0000
  C   C130      1.0  0.48698  0.18413  0.26054  1.0000
  C   C131      1.0  0.48538  0.20407  0.25966  1.0000
  C   C132      1.0  0.49726  0.22152  0.32299  1.0000
  C   C133      1.0  0.61328  0.12335  0.32452  1.0000
  C   C134      1.0  0.65895  0.16111  0.32615  1.0000
  C   C135      1.0  0.64825  0.14992  0.24516  1.0000
  C   C136      1.0  0.62577  0.13140  0.24415  1.0000
  C   C137      1.0  0.68144  0.18070  0.32675  1.0000
  C   C138      1.0  0.72579  0.22071  0.33141  1.0000
  C   C139      1.0  0.71013  0.21754  0.26245  1.0000
  C   C140      1.0  0.68838  0.19788  0.26023  1.0000
  C   C141      1.0  0.55390  0.00394  0.32208  1.0000
  C   C142      1.0  0.55520  0.99394  0.24107  1.0000
  C   C143      1.0  0.55904  0.97536  0.24190  1.0000
  C   C144      1.0  0.56164  0.96610  0.32346  1.0000
  C   C145      1.0  0.56431  0.94639  0.32419  1.0000
  C   C146      1.0  0.56848  0.90625  0.32286  1.0000
  C   C147      1.0  0.58023  0.92388  0.25993  1.0000
  C   C148      1.0  0.57827  0.94362  0.26082  1.0000
  C   C149      1.0  0.45096  0.00350  0.32484  1.0000
  C   C150      1.0  0.43838  0.99550  0.24453  1.0000
  C   C151      1.0  0.40546  0.96545  0.32647  1.0000
  C   C152      1.0  0.41599  0.97683  0.24553  1.0000
  C   C153      1.0  0.38310  0.94566  0.32701  1.0000
  C   C154      1.0  0.37628  0.92862  0.26020  1.0000
  C   C155      1.0  0.35470  0.90875  0.26247  1.0000
  C   C156      1.0  0.33905  0.90523  0.33162  1.0000
  H   H53       1.0  0.35077  0.89657  0.21458  1.0000
  H   H54       1.0  0.38733  0.93008  0.21063  1.0000
  H   H55       1.0  0.40746  0.97154  0.18590  1.0000
  H   H56       1.0  0.44563  0.00288  0.18451  1.0000
  H   H57       1.0  0.44664  0.04153  0.32650  1.0000
  H   H58       1.0  0.46815  0.08478  0.32548  1.0000
  H   H59       1.0  0.51472  0.06336  0.31991  1.0000
  H   H60       1.0  0.54952  0.06351  0.31969  1.0000
  H   H61       1.0  0.47020  0.97648  0.31990  1.0000
  H   H62       1.0  0.50768  0.97664  0.31968  1.0000
  H   H63       1.0  0.55258  0.99964  0.18105  1.0000
  H   H64       1.0  0.55896  0.96803  0.18196  1.0000
  H   H65       1.0  0.59610  0.04209  0.32555  1.0000
  H   H66       1.0  0.61760  0.08533  0.32642  1.0000
  H   H67       1.0  0.55657  0.15024  0.31987  1.0000
  H   H68       1.0  0.59406  0.15039  0.31997  1.0000
  H   H69       1.0  0.61843  0.12412  0.18413  1.0000
  H   H70       1.0  0.65673  0.15522  0.18552  1.0000
  H   H71       1.0  0.67733  0.19668  0.21087  1.0000
  H   H72       1.0  0.71415  0.22984  0.21483  1.0000
  H   H73       1.0  0.51188  0.12759  0.18103  1.0000
  H   H74       1.0  0.50584  0.15940  0.18204  1.0000
  H   H75       1.0  0.47541  0.20577  0.21210  1.0000
  H   H76       1.0  0.47784  0.17180  0.21404  1.0000
  H   H77       1.0  0.58735  0.95609  0.21466  1.0000
  H   H78       1.0  0.59038  0.92248  0.21270  1.0000
  N   N21       1.0  0.49572  0.24037  0.31608  1.0000
  N   N22       1.0  0.31896  0.88621  0.34077  1.0000
  N   N23       1.0  0.57039  0.88763  0.31598  1.0000
  N   N24       1.0  0.74607  0.23950  0.34048  1.0000
  C   C157      1.0  0.24518  0.52620  0.30803  1.0000
  C   C158      1.0  0.26219  0.53165  0.24218  1.0000
  C   C159      1.0  0.28282  0.53233  0.26229  1.0000
  H   H79       1.0  0.29472  0.53703  0.21254  1.0000
  H   H80       1.0  0.25998  0.53573  0.17820  1.0000
  H   H81       1.0  0.22526  0.51651  0.00329  1.0000
  H   H82       1.0  0.25166  0.50153  0.04131  1.0000
  H   H83       1.0  0.28026  0.52102  0.01342  1.0000
  C   C160      1.0  0.22547  0.52677  0.28340  1.0000
  H   H84       1.0  0.22278  0.52821  0.21870  1.0000
  C   C161      1.0  0.57083  0.81230  0.31020  1.0000
  C   C162      1.0  0.56536  0.82393  0.24435  1.0000
  C   C163      1.0  0.56468  0.84385  0.26445  1.0000
  H   H85       1.0  0.55997  0.85110  0.21471  1.0000
  H   H86       1.0  0.56126  0.81770  0.18040  1.0000
  H   H87       1.0  0.58058  0.80207  0.00544  1.0000
  H   H88       1.0  0.59557  0.84342  0.04339  1.0000
  H   H89       1.0  0.57607  0.85256  0.01555  1.0000
  C   C164      1.0  0.57026  0.79205  0.28558  1.0000
  H   H90       1.0  0.56883  0.78801  0.22089  1.0000
  C   C165      1.0  0.28474  0.85185  0.30837  1.0000
  C   C166      1.0  0.27315  0.83487  0.24235  1.0000
  C   C167      1.0  0.25321  0.81424  0.26217  1.0000
  H   H91       1.0  0.24598  0.80236  0.21231  1.0000
  H   H92       1.0  0.27942  0.83712  0.17846  1.0000
  H   H93       1.0  0.29472  0.87158  0.00379  1.0000
  H   H94       1.0  0.25333  0.84518  0.04124  1.0000
  H   H95       1.0  0.24420  0.81659  0.01321  1.0000
  C   C168      1.0  0.30502  0.87156  0.28403  1.0000
  H   H96       1.0  0.30914  0.87427  0.21940  1.0000
  C   C169      1.0  0.82335  0.60018  0.30810  1.0000
  C   C170      1.0  0.80633  0.59507  0.24234  1.0000
  C   C171      1.0  0.78595  0.59484  0.26250  1.0000
  H   H97       1.0  0.77402  0.59037  0.21282  1.0000
  H   H98       1.0  0.80834  0.59090  0.17841  1.0000
  H   H99       1.0  0.84344  0.60971  0.00324  1.0000
  H   H100      1.0  0.81775  0.62548  0.04117  1.0000
  H   H101      1.0  0.78899  0.60644  0.01352  1.0000
  C   C172      1.0  0.84278  0.59913  0.28344  1.0000
  H   H102      1.0  0.84523  0.59744  0.21883  1.0000
  C   C173      1.0  0.49683  0.31648  0.31022  1.0000
  C   C174      1.0  0.50193  0.30465  0.24443  1.0000
  C   C175      1.0  0.50216  0.28447  0.26457  1.0000
  H   H103      1.0  0.50663  0.27708  0.21486  1.0000
  H   H104      1.0  0.50608  0.31091  0.18048  1.0000
  H   H105      1.0  0.48738  0.32703  0.00539  1.0000
  H   H106      1.0  0.47163  0.28552  0.04336  1.0000
  H   H107      1.0  0.49067  0.27585  0.01563  1.0000
  C   C176      1.0  0.49787  0.33698  0.28556  1.0000
  H   H108      1.0  0.49955  0.34120  0.22095  1.0000
  C   C177      1.0  0.78055  0.27363  0.30831  1.0000
  C   C178      1.0  0.79237  0.29059  0.24232  1.0000
  C   C179      1.0  0.81257  0.31098  0.26224  1.0000
  H   H109      1.0  0.81996  0.32286  0.21239  1.0000
  H   H110      1.0  0.78610  0.28853  0.17839  1.0000
  H   H111      1.0  0.77012  0.25386  0.00371  1.0000
  H   H112      1.0  0.81164  0.27956  0.04140  1.0000
  H   H113      1.0  0.82133  0.30830  0.01333  1.0000
  C   C180      1.0  0.76003  0.25420  0.28389  1.0000
  H   H114      1.0  0.75575  0.25173  0.21932  1.0000
  C   C181      1.0  0.96545  0.46896  0.40038  1.0000
  C   C182      1.0  0.94675  0.44659  0.40095  1.0000
  C   C183      1.0  0.87853  0.38571  0.38390  1.0000
  C   C184      1.0  0.89846  0.40724  0.38453  1.0000
  C   C185      1.0  0.96299  0.58293  0.40340  1.0000
  C   C186      1.0  0.94443  0.58681  0.40436  1.0000
  C   C187      1.0  0.91299  0.60641  0.39397  1.0000
  C   C188      1.0  0.89328  0.60839  0.39694  1.0000
  C   C189      1.0  0.12040  0.67734  0.40093  1.0000
  C   C190      1.0  0.10183  0.65490  0.40041  1.0000
  C   C191      1.0  0.16845  0.71711  0.38379  1.0000
  C   C192      1.0  0.18816  0.73880  0.38319  1.0000
  C   C193      1.0  0.10441  0.54121  0.40353  1.0000
  C   C194      1.0  0.12310  0.53752  0.40446  1.0000
  C   C195      1.0  0.17496  0.51691  0.39734  1.0000
  C   C196      1.0  0.15504  0.51854  0.39439  1.0000
  H   H115      1.0  0.17710  0.50819  0.44904  1.0000
  H   H116      1.0  0.14317  0.51062  0.44371  1.0000
  H   H117      1.0  0.13105  0.53891  0.46440  1.0000
  H   H118      1.0  0.09927  0.54496  0.46235  1.0000
  H   H119      1.0  0.09508  0.64694  0.46014  1.0000
  H   H120      1.0  0.12628  0.68518  0.46149  1.0000
  H   H121      1.0  0.96819  0.57918  0.46228  1.0000
  H   H122      1.0  0.93663  0.58557  0.46438  1.0000
  H   H123      1.0  0.89142  0.61730  0.44833  1.0000
  H   H124      1.0  0.92501  0.61427  0.44296  1.0000
  H   H125      1.0  0.89958  0.41899  0.43025  1.0000
  H   H126      1.0  0.86602  0.38256  0.42926  1.0000
  H   H127      1.0  0.94095  0.43869  0.46150  1.0000
  H   H128      1.0  0.97236  0.47682  0.46008  1.0000
  H   H129      1.0  0.16760  0.70537  0.42920  1.0000
  H   H130      1.0  0.20083  0.74205  0.42817  1.0000
  C   C197      1.0  0.62805  0.58959  0.40211  1.0000
  C   C198      1.0  0.65042  0.59324  0.40255  1.0000
  C   C199      1.0  0.71130  0.58595  0.38475  1.0000
  C   C200      1.0  0.68976  0.58432  0.38551  1.0000
  C   C201      1.0  0.51411  0.47326  0.40542  1.0000
  C   C202      1.0  0.51022  0.45082  0.40642  1.0000
  C   C203      1.0  0.49061  0.39979  0.39612  1.0000
  C   C204      1.0  0.48863  0.37809  0.39910  1.0000
  C   C205      1.0  0.41969  0.53634  0.40256  1.0000
  C   C206      1.0  0.44213  0.54021  0.40218  1.0000
  C   C207      1.0  0.37990  0.54459  0.38495  1.0000
  C   C208      1.0  0.35821  0.54262  0.38411  1.0000
  C   C209      1.0  0.55582  0.65640  0.40559  1.0000
  C   C210      1.0  0.55951  0.67876  0.40657  1.0000
  C   C211      1.0  0.58011  0.75125  0.39955  1.0000
  C   C212      1.0  0.57849  0.72971  0.39658  1.0000
  H   H131      1.0  0.58882  0.76204  0.45127  1.0000
  H   H132      1.0  0.58640  0.72569  0.44591  1.0000
  H   H133      1.0  0.55810  0.68524  0.46649  1.0000
  H   H134      1.0  0.55205  0.64742  0.46440  1.0000
  H   H135      1.0  0.45009  0.54140  0.46196  1.0000
  H   H136      1.0  0.41185  0.53435  0.46308  1.0000
  H   H137      1.0  0.51785  0.48215  0.46429  1.0000
  H   H138      1.0  0.51147  0.44419  0.46644  1.0000
  H   H139      1.0  0.47974  0.36727  0.45053  1.0000
  H   H140      1.0  0.48276  0.40388  0.44513  1.0000
  H   H141      1.0  0.67803  0.57362  0.43119  1.0000
  H   H142      1.0  0.71444  0.57648  0.42986  1.0000
  H   H143      1.0  0.65832  0.59521  0.46306  1.0000
  H   H144      1.0  0.62019  0.58850  0.46187  1.0000
  H   H145      1.0  0.39163  0.55547  0.43025  1.0000
  H   H146      1.0  0.35495  0.55202  0.42887  1.0000
  C   C213      1.0  0.50746  0.13166  0.40365  1.0000
  C   C214      1.0  0.50381  0.15036  0.40420  1.0000
  C   C215      1.0  0.51108  0.21856  0.38663  1.0000
  C   C216      1.0  0.51270  0.19864  0.38735  1.0000
  C   C217      1.0  0.62384  0.13410  0.40582  1.0000
  C   C218      1.0  0.64628  0.15265  0.40647  1.0000
  C   C219      1.0  0.69731  0.18405  0.39545  1.0000
  C   C220      1.0  0.71901  0.20377  0.39808  1.0000
  C   C221      1.0  0.56066  0.97655  0.40424  1.0000
  C   C222      1.0  0.55679  0.99512  0.40375  1.0000
  C   C223      1.0  0.55243  0.92853  0.38679  1.0000
  C   C224      1.0  0.55440  0.90881  0.38606  1.0000
  C   C225      1.0  0.44057  0.99256  0.40609  1.0000
  C   C226      1.0  0.41819  0.97389  0.40674  1.0000
  C   C227      1.0  0.34571  0.92202  0.39862  1.0000
  C   C228      1.0  0.36725  0.94193  0.39599  1.0000
  H   H147      1.0  0.33487  0.91985  0.45017  1.0000
  H   H148      1.0  0.37123  0.95378  0.44540  1.0000
  H   H149      1.0  0.41166  0.96588  0.46656  1.0000
  H   H150      1.0  0.44948  0.99767  0.46503  1.0000
  H   H151      1.0  0.55558  0.00182  0.46348  1.0000
  H   H152      1.0  0.56263  0.97062  0.46480  1.0000
  H   H153      1.0  0.61499  0.12895  0.46480  1.0000
  H   H154      1.0  0.65295  0.16051  0.46635  1.0000
  H   H155      1.0  0.72988  0.20567  0.44940  1.0000
  H   H156      1.0  0.69324  0.17209  0.44461  1.0000
  H   H157      1.0  0.52343  0.19756  0.43292  1.0000
  H   H158      1.0  0.52057  0.23112  0.43172  1.0000
  H   H159      1.0  0.50188  0.15623  0.46476  1.0000
  H   H160      1.0  0.50860  0.12482  0.46337  1.0000
  H   H161      1.0  0.54153  0.92932  0.43199  1.0000
  H   H162      1.0  0.54499  0.89610  0.43077  1.0000
  C   C229      1.0  0.28749  0.52752  0.34955  1.0000
  C   C230      1.0  0.27047  0.52165  0.41592  1.0000
  C   C231      1.0  0.24959  0.52093  0.39559  1.0000
  N   N25       1.0  0.23433  0.51519  0.46355  1.0000
  C   C232      1.0  0.23741  0.51011  0.54876  1.0000
  C   C233      1.0  0.25821  0.51082  0.56878  1.0000
  N   N26       1.0  0.27353  0.51654  0.50127  1.0000
  C   C234      1.0  0.21902  0.50430  0.61443  1.0000
  H   H163      1.0  0.20467  0.50493  0.58400  1.0000
  H   H164      1.0  0.21284  0.48712  0.64021  1.0000
  C   C235      1.0  0.26485  0.50590  0.65695  1.0000
  H   H165      1.0  0.26809  0.49175  0.65031  1.0000
  C   C236      1.0  0.30869  0.52999  0.37081  1.0000
  H   H166      1.0  0.31451  0.53454  0.43295  1.0000
  C   C237      1.0  0.56950  0.85323  0.35169  1.0000
  C   C238      1.0  0.57539  0.84201  0.41805  1.0000
  C   C239      1.0  0.57610  0.82187  0.39774  1.0000
  N   N27       1.0  0.58186  0.81228  0.46570  1.0000
  C   C240      1.0  0.58696  0.82034  0.55088  1.0000
  C   C241      1.0  0.58625  0.84041  0.57089  1.0000
  N   N28       1.0  0.58051  0.85008  0.50339  1.0000
  C   C242      1.0  0.59278  0.80768  0.61655  1.0000
  H   H167      1.0  0.59215  0.79275  0.58613  1.0000
  H   H168      1.0  0.60997  0.81866  0.64227  1.0000
  C   C243      1.0  0.59118  0.85186  0.65904  1.0000
  H   H169      1.0  0.60533  0.86927  0.65235  1.0000
  C   C244      1.0  0.56704  0.87194  0.37293  1.0000
  H   H170      1.0  0.56250  0.87314  0.43507  1.0000
  C   C245      1.0  0.24377  0.80953  0.34931  1.0000
  C   C246      1.0  0.25494  0.82652  0.41585  1.0000
  C   C247      1.0  0.27510  0.84740  0.39580  1.0000
  N   N29       1.0  0.28465  0.86262  0.46391  1.0000
  C   C248      1.0  0.27653  0.85950  0.54902  1.0000
  C   C249      1.0  0.25644  0.83870  0.56874  1.0000
  N   N30       1.0  0.24681  0.82342  0.50109  1.0000
  C   C250      1.0  0.28915  0.87786  0.61488  1.0000
  H   H171      1.0  0.30412  0.89222  0.58465  1.0000
  H   H172      1.0  0.27817  0.88404  0.64054  1.0000
  C   C251      1.0  0.24493  0.83203  0.65677  1.0000
  H   H173      1.0  0.22752  0.82879  0.64990  1.0000
  C   C252      1.0  0.22504  0.78833  0.37032  1.0000
  H   H174      1.0  0.22378  0.78248  0.43246  1.0000
  C   C253      1.0  0.78156  0.59980  0.34973  1.0000
  C   C254      1.0  0.79860  0.60534  0.41600  1.0000
  C   C255      1.0  0.81923  0.60559  0.39562  1.0000
  N   N31       1.0  0.83452  0.61103  0.46351  1.0000
  C   C256      1.0  0.83170  0.61622  0.54868  1.0000
  C   C257      1.0  0.81116  0.61598  0.56874  1.0000
  N   N32       1.0  0.79581  0.61056  0.50131  1.0000
  C   C258      1.0  0.85010  0.62165  0.61426  1.0000
  H   H175      1.0  0.86422  0.62069  0.58380  1.0000
  H   H176      1.0  0.85664  0.63888  0.63987  1.0000
  C   C259      1.0  0.80483  0.62109  0.65688  1.0000
  H   H177      1.0  0.80194  0.63548  0.65012  1.0000
  C   C260      1.0  0.76057  0.59777  0.37108  1.0000
  H   H178      1.0  0.75484  0.59338  0.43336  1.0000
  C   C261      1.0  0.49723  0.27503  0.35180  1.0000
  C   C262      1.0  0.49170  0.28645  0.41811  1.0000
  C   C263      1.0  0.49145  0.30684  0.39774  1.0000
  N   N33       1.0  0.48602  0.31662  0.46567  1.0000
  C   C264      1.0  0.48085  0.30851  0.55085  1.0000
  C   C265      1.0  0.48110  0.28818  0.57089  1.0000
  N   N34       1.0  0.48651  0.27833  0.50344  1.0000
  C   C266      1.0  0.47544  0.32140  0.61646  1.0000
  H   H179      1.0  0.47639  0.33652  0.58601  1.0000
  H   H180      1.0  0.45821  0.31067  0.64214  1.0000
  C   C267      1.0  0.47602  0.27664  0.65905  1.0000
  H   H181      1.0  0.46162  0.25937  0.65234  1.0000
  C   C268      1.0  0.49926  0.25604  0.37313  1.0000
  H   H182      1.0  0.50368  0.25463  0.43538  1.0000
  C   C269      1.0  0.82205  0.31544  0.34943  1.0000
  C   C270      1.0  0.81064  0.29846  0.41592  1.0000
  C   C271      1.0  0.79022  0.27782  0.39579  1.0000
  N   N35       1.0  0.78046  0.26259  0.46389  1.0000
  C   C272      1.0  0.78860  0.26548  0.54904  1.0000
  C   C273      1.0  0.80894  0.28603  0.56885  1.0000
  N   N36       1.0  0.81878  0.30132  0.50122  1.0000
  C   C274      1.0  0.77572  0.24715  0.61486  1.0000
  H   H183      1.0  0.76058  0.23300  0.58456  1.0000
  H   H184      1.0  0.78644  0.24062  0.64061  1.0000
  C   C275      1.0  0.82051  0.29243  0.65694  1.0000
  H   H185      1.0  0.83778  0.29530  0.65020  1.0000
  C   C276      1.0  0.84105  0.33644  0.37054  1.0000
  H   H186      1.0  0.84252  0.34220  0.43280  1.0000
