data_image0
_chemical_formula_structural       C4NC2NH2C4NC2NH2C2H2C2H2C2H2C2H2C4NC2NH2C4NC2NH2C4NC2NH2C4NC2NH2C2H2C2H2C2H2C2H2C4NC2NH2C4NC2NH2C4NC2NH2C4NC2NH2C6H3C6H3C6H3C6H3C6H3C6H3C6H3C6H3C6H3C6H3C6H3C6H3C2H2C2H2C4NC2NH2C4NC2NH2C4NC2NH2C4NC2NH2C2H2C2H2C2H2C2H2C4NC2NH2C4NC2NH2C4NC2NH2C4NC2NH2C2H2C2H2C2H2C2H2
_chemical_formula_sum              "C216 N36 H108"
_cell_length_a       34.4021
_cell_length_b       34.2443
_cell_length_c       14.8552
_cell_angle_alpha    90
_cell_angle_beta     90
_cell_angle_gamma    90.2677

_space_group_name_H-M_alt    "P 1"
_space_group_IT_number       1

loop_
  _space_group_symop_operation_xyz
  'x, y, z'

loop_
  _atom_site_type_symbol
  _atom_site_label
  _atom_site_symmetry_multiplicity
  _atom_site_fract_x
  _atom_site_fract_y
  _atom_site_fract_z
  _atom_site_occupancy
  C   C1        1.0  0.03232  0.47458  0.34126  1.0000
  C   C2        1.0  0.01781  0.48983  0.25928  1.0000
  C   C3        1.0  0.98838  0.51902  0.25951  1.0000
  C   C4        1.0  0.97311  0.53327  0.34171  1.0000
  N   N1        1.0  0.97548  0.53257  0.17867  1.0000
  C   C5        1.0  0.98924  0.51966  0.09852  1.0000
  C   C6        1.0  0.01819  0.49090  0.09830  1.0000
  N   N2        1.0  0.03132  0.47713  0.17826  1.0000
  H   H1        1.0  0.97861  0.53074  0.03966  1.0000
  H   H2        1.0  0.02926  0.48042  0.03929  1.0000
  C   C7        1.0  0.53192  0.03073  0.34118  1.0000
  C   C8        1.0  0.51683  0.01594  0.25920  1.0000
  C   C9        1.0  0.48741  0.98647  0.25949  1.0000
  C   C10       1.0  0.47278  0.97152  0.34176  1.0000
  N   N3        1.0  0.47396  0.97330  0.17871  1.0000
  C   C11       1.0  0.48718  0.98682  0.09850  1.0000
  C   C12       1.0  0.51614  0.01585  0.09820  1.0000
  N   N4        1.0  0.52981  0.02925  0.17812  1.0000
  H   H3        1.0  0.47616  0.97600  0.03968  1.0000
  H   H4        1.0  0.52682  0.02677  0.03914  1.0000
  C   C13       1.0  0.05582  0.27453  0.26314  1.0000
  C   C14       1.0  0.06419  0.31483  0.26345  1.0000
  H   H5        1.0  0.06725  0.32902  0.20314  1.0000
  H   H6        1.0  0.05282  0.26049  0.20262  1.0000
  C   C15       1.0  0.94794  0.73309  0.26324  1.0000
  C   C16       1.0  0.93929  0.69284  0.26381  1.0000
  H   H7        1.0  0.93541  0.67875  0.20362  1.0000
  H   H8        1.0  0.95025  0.74720  0.20266  1.0000
  C   C17       1.0  0.73120  0.05688  0.26290  1.0000
  C   C18       1.0  0.69112  0.06516  0.26318  1.0000
  H   H9        1.0  0.67716  0.06882  0.20287  1.0000
  H   H10       1.0  0.74530  0.05462  0.20240  1.0000
  C   C19       1.0  0.27428  0.95016  0.26269  1.0000
  C   C20       1.0  0.31406  0.94057  0.26340  1.0000
  H   H11       1.0  0.32827  0.93748  0.20323  1.0000
  H   H12       1.0  0.26059  0.95376  0.20203  1.0000
  C   C21       1.0  0.43411  0.83270  0.34180  1.0000
  C   C22       1.0  0.43799  0.81206  0.25968  1.0000
  C   C23       1.0  0.44714  0.77150  0.25978  1.0000
  C   C24       1.0  0.45246  0.75129  0.34199  1.0000
  N   N5        1.0  0.45042  0.75303  0.17892  1.0000
  C   C25       1.0  0.44546  0.77134  0.09882  1.0000
  C   C26       1.0  0.43644  0.81129  0.09871  1.0000
  N   N6        1.0  0.43304  0.83005  0.17871  1.0000
  H   H13       1.0  0.44823  0.75620  0.03994  1.0000
  H   H14       1.0  0.43246  0.82608  0.03975  1.0000
  C   C27       1.0  0.56973  0.16989  0.34113  1.0000
  C   C28       1.0  0.56500  0.19038  0.25908  1.0000
  C   C29       1.0  0.55641  0.23106  0.25930  1.0000
  C   C30       1.0  0.55260  0.25158  0.34159  1.0000
  N   N7        1.0  0.55234  0.24939  0.17847  1.0000
  C   C31       1.0  0.55603  0.23083  0.09830  1.0000
  C   C32       1.0  0.56454  0.19077  0.09807  1.0000
  N   N8        1.0  0.56870  0.17214  0.17805  1.0000
  H   H15       1.0  0.55273  0.24588  0.03945  1.0000
  H   H16       1.0  0.56759  0.17579  0.03906  1.0000
  C   C33       1.0  0.83457  0.57051  0.34188  1.0000
  C   C34       1.0  0.81406  0.56645  0.25969  1.0000
  C   C35       1.0  0.77351  0.55769  0.25960  1.0000
  C   C36       1.0  0.75308  0.55305  0.34173  1.0000
  N   N9        1.0  0.75522  0.55422  0.17863  1.0000
  C   C37       1.0  0.77370  0.55867  0.09861  1.0000
  C   C38       1.0  0.81362  0.56736  0.09870  1.0000
  N   N10       1.0  0.83221  0.57092  0.17881  1.0000
  H   H17       1.0  0.75869  0.55579  0.03964  1.0000
  H   H18       1.0  0.82854  0.57098  0.03981  1.0000
  C   C39       1.0  0.17055  0.43594  0.34151  1.0000
  C   C40       1.0  0.19120  0.44026  0.25958  1.0000
  C   C41       1.0  0.23197  0.44781  0.26009  1.0000
  C   C42       1.0  0.25245  0.45084  0.34252  1.0000
  N   N11       1.0  0.25044  0.45161  0.17941  1.0000
  C   C43       1.0  0.23192  0.44855  0.09910  1.0000
  C   C44       1.0  0.19177  0.44099  0.09859  1.0000
  N   N12       1.0  0.17301  0.43714  0.17842  1.0000
  H   H19       1.0  0.24707  0.45161  0.04036  1.0000
  H   H20       1.0  0.17682  0.43841  0.03946  1.0000
  C   C45       1.0  0.10941  0.09986  0.26215  1.0000
  C   C46       1.0  0.13271  0.06617  0.26180  1.0000
  H   H21       1.0  0.13917  0.05339  0.20128  1.0000
  H   H22       1.0  0.09968  0.11060  0.20188  1.0000
  C   C47       1.0  0.89538  0.90726  0.26361  1.0000
  C   C48       1.0  0.87219  0.94103  0.26357  1.0000
  H   H23       1.0  0.86513  0.95351  0.20309  1.0000
  H   H24       1.0  0.90445  0.89614  0.20316  1.0000
  C   C49       1.0  0.90570  0.11071  0.26208  1.0000
  C   C50       1.0  0.94011  0.13309  0.26213  1.0000
  H   H25       1.0  0.95332  0.13908  0.20184  1.0000
  H   H26       1.0  0.89497  0.10096  0.20176  1.0000
  C   C51       1.0  0.09922  0.89705  0.26147  1.0000
  C   C52       1.0  0.06503  0.87433  0.26194  1.0000
  H   H27       1.0  0.05165  0.86839  0.20182  1.0000
  H   H28       1.0  0.10973  0.90691  0.20103  1.0000
  C   C53       1.0  0.36186  0.54453  0.34335  1.0000
  C   C54       1.0  0.37325  0.56183  0.26082  1.0000
  C   C55       1.0  0.39638  0.59641  0.26029  1.0000
  C   C56       1.0  0.40822  0.61392  0.34226  1.0000
  N   N13       1.0  0.40813  0.61082  0.17917  1.0000
  C   C57       1.0  0.39850  0.59414  0.09938  1.0000
  C   C58       1.0  0.37571  0.56002  0.09993  1.0000
  N   N14       1.0  0.36420  0.54509  0.18022  1.0000
  H   H29       1.0  0.40804  0.60608  0.04032  1.0000
  H   H30       1.0  0.36815  0.54639  0.04129  1.0000
  C   C59       1.0  0.64415  0.45820  0.34156  1.0000
  C   C60       1.0  0.63196  0.44113  0.25936  1.0000
  C   C61       1.0  0.60868  0.40664  0.25937  1.0000
  C   C62       1.0  0.59739  0.38895  0.34156  1.0000
  N   N15       1.0  0.59620  0.39248  0.17859  1.0000
  C   C63       1.0  0.60525  0.40932  0.09862  1.0000
  C   C64       1.0  0.62818  0.44334  0.09862  1.0000
  N   N16       1.0  0.64041  0.45803  0.17859  1.0000
  H   H31       1.0  0.59517  0.39757  0.03985  1.0000
  H   H32       1.0  0.63529  0.45710  0.03984  1.0000
  C   C65       1.0  0.54681  0.64271  0.34146  1.0000
  C   C66       1.0  0.56372  0.63049  0.25926  1.0000
  C   C67       1.0  0.59833  0.60784  0.25922  1.0000
  C   C68       1.0  0.61633  0.59723  0.34140  1.0000
  N   N17       1.0  0.61233  0.59527  0.17849  1.0000
  C   C69       1.0  0.59523  0.60367  0.09860  1.0000
  C   C70       1.0  0.56111  0.62600  0.09863  1.0000
  N   N18       1.0  0.54658  0.63830  0.17857  1.0000
  H   H33       1.0  0.60688  0.59356  0.03985  1.0000
  H   H34       1.0  0.54717  0.63262  0.03992  1.0000
  C   C71       1.0  0.45865  0.36030  0.34274  1.0000
  C   C72       1.0  0.44099  0.37158  0.26070  1.0000
  C   C73       1.0  0.40625  0.39406  0.26111  1.0000
  C   C74       1.0  0.38888  0.40537  0.34348  1.0000
  N   N19       1.0  0.39155  0.40584  0.18042  1.0000
  C   C75       1.0  0.40804  0.39679  0.10021  1.0000
  C   C76       1.0  0.44226  0.37461  0.09983  1.0000
  N   N20       1.0  0.45750  0.36312  0.17968  1.0000
  H   H35       1.0  0.39586  0.40631  0.04151  1.0000
  H   H36       1.0  0.45574  0.36750  0.04084  1.0000
  C   C77       1.0  0.07932  0.37559  0.34364  1.0000
  C   C78       1.0  0.11899  0.38639  0.34358  1.0000
  C   C79       1.0  0.13036  0.42608  0.34284  1.0000
  C   C80       1.0  0.10136  0.45524  0.34212  1.0000
  C   C81       1.0  0.06141  0.44511  0.34285  1.0000
  C   C82       1.0  0.05074  0.40514  0.34350  1.0000
  H   H37       1.0  0.10940  0.48408  0.34108  1.0000
  H   H38       1.0  0.02190  0.39747  0.34371  1.0000
  H   H39       1.0  0.13986  0.36509  0.34385  1.0000
  C   C83       1.0  0.92529  0.63189  0.34443  1.0000
  C   C84       1.0  0.88569  0.62073  0.34428  1.0000
  C   C85       1.0  0.87465  0.58092  0.34381  1.0000
  C   C86       1.0  0.90393  0.55205  0.34330  1.0000
  C   C87       1.0  0.94379  0.56252  0.34377  1.0000
  C   C88       1.0  0.95411  0.60257  0.34429  1.0000
  H   H40       1.0  0.89615  0.52312  0.34214  1.0000
  H   H41       1.0  0.98289  0.61047  0.34429  1.0000
  H   H42       1.0  0.86464  0.64184  0.34434  1.0000
  C   C89       1.0  0.63041  0.07904  0.34340  1.0000
  C   C90       1.0  0.61951  0.11878  0.34328  1.0000
  C   C91       1.0  0.57994  0.12970  0.34274  1.0000
  C   C92       1.0  0.55104  0.10019  0.34212  1.0000
  C   C93       1.0  0.56125  0.06021  0.34277  1.0000
  C   C94       1.0  0.60106  0.04997  0.34338  1.0000
  H   H43       1.0  0.52228  0.10790  0.34109  1.0000
  H   H44       1.0  0.60876  0.02109  0.34356  1.0000
  H   H45       1.0  0.64062  0.14001  0.34343  1.0000
  C   C95       1.0  0.37397  0.92400  0.34412  1.0000
  C   C96       1.0  0.38454  0.88416  0.34405  1.0000
  C   C97       1.0  0.42403  0.87292  0.34366  1.0000
  C   C98       1.0  0.45317  0.90221  0.34335  1.0000
  C   C99       1.0  0.44327  0.94226  0.34381  1.0000
  C   C100      1.0  0.40355  0.95282  0.34403  1.0000
  H   H46       1.0  0.48186  0.89429  0.34233  1.0000
  H   H47       1.0  0.39611  0.98177  0.34400  1.0000
  H   H48       1.0  0.36326  0.86310  0.34403  1.0000
  C   C101      1.0  0.06677  0.14494  0.34196  1.0000
  C   C102      1.0  0.02774  0.13202  0.34183  1.0000
  C   C103      1.0  0.99670  0.15885  0.34188  1.0000
  C   C104      1.0  0.00503  0.19927  0.34233  1.0000
  C   C105      1.0  0.04395  0.21285  0.34237  1.0000
  C   C106      1.0  0.07466  0.18546  0.34245  1.0000
  H   H49       1.0  0.98262  0.21888  0.34325  1.0000
  H   H50       1.0  0.10292  0.19505  0.34343  1.0000
  H   H51       1.0  0.02182  0.10262  0.34237  1.0000
  C   C107      1.0  0.93873  0.86255  0.34247  1.0000
  C   C108      1.0  0.97779  0.87535  0.34250  1.0000
  C   C109      1.0  0.00873  0.84842  0.34228  1.0000
  C   C110      1.0  0.00028  0.80802  0.34241  1.0000
  C   C111      1.0  0.96132  0.79456  0.34218  1.0000
  C   C112      1.0  0.93070  0.82206  0.34237  1.0000
  H   H52       1.0  0.02263  0.78834  0.34317  1.0000
  H   H53       1.0  0.90240  0.81257  0.34340  1.0000
  H   H54       1.0  0.98379  0.90474  0.34330  1.0000
  C   C113      1.0  0.85993  0.06852  0.34171  1.0000
  C   C114      1.0  0.87302  0.02953  0.34188  1.0000
  C   C115      1.0  0.84656  0.99792  0.34219  1.0000
  C   C116      1.0  0.80625  0.00565  0.34250  1.0000
  C   C117      1.0  0.79246  0.04455  0.34215  1.0000
  C   C118      1.0  0.81954  0.07584  0.34202  1.0000
  H   H55       1.0  0.78689  0.98282  0.34372  1.0000
  H   H56       1.0  0.80986  0.10409  0.34282  1.0000
  H   H57       1.0  0.90233  0.02405  0.34260  1.0000
  C   C119      1.0  0.14521  0.93921  0.34045  1.0000
  C   C120      1.0  0.13244  0.97831  0.34022  1.0000
  C   C121      1.0  0.15918  0.00969  0.34053  1.0000
  C   C122      1.0  0.19943  0.00158  0.34117  1.0000
  C   C123      1.0  0.21286  0.96254  0.34121  1.0000
  C   C124      1.0  0.18549  0.93152  0.34126  1.0000
  H   H58       1.0  0.21900  0.02421  0.34240  1.0000
  H   H59       1.0  0.19490  0.90317  0.34243  1.0000
  H   H60       1.0  0.10317  0.98401  0.34079  1.0000
  C   C125      1.0  0.43815  0.64255  0.34383  1.0000
  C   C126      1.0  0.47718  0.63002  0.34375  1.0000
  C   C127      1.0  0.50820  0.65715  0.34383  1.0000
  C   C128      1.0  0.49980  0.69750  0.34386  1.0000
  C   C129      1.0  0.46084  0.71069  0.34400  1.0000
  C   C130      1.0  0.43018  0.68297  0.34372  1.0000
  H   H61       1.0  0.52217  0.71736  0.34301  1.0000
  H   H62       1.0  0.40189  0.69222  0.34296  1.0000
  H   H63       1.0  0.48310  0.60067  0.34302  1.0000
  C   C131      1.0  0.56737  0.36036  0.34391  1.0000
  C   C132      1.0  0.52836  0.37295  0.34418  1.0000
  C   C133      1.0  0.49727  0.34589  0.34431  1.0000
  C   C134      1.0  0.50557  0.30552  0.34385  1.0000
  C   C135      1.0  0.54449  0.29224  0.34374  1.0000
  C   C136      1.0  0.57522  0.31989  0.34356  1.0000
  H   H64       1.0  0.48314  0.28573  0.34307  1.0000
  H   H65       1.0  0.60347  0.31055  0.34245  1.0000
  H   H66       1.0  0.52248  0.40231  0.34363  1.0000
  C   C137      1.0  0.64480  0.56735  0.34373  1.0000
  C   C138      1.0  0.63211  0.52811  0.34382  1.0000
  C   C139      1.0  0.65888  0.49700  0.34385  1.0000
  C   C140      1.0  0.69911  0.50553  0.34361  1.0000
  C   C141      1.0  0.71254  0.54469  0.34365  1.0000
  C   C142      1.0  0.68513  0.57544  0.34348  1.0000
  H   H67       1.0  0.71869  0.48308  0.34270  1.0000
  H   H68       1.0  0.69453  0.60387  0.34250  1.0000
  H   H69       1.0  0.60285  0.52207  0.34309  1.0000
  C   C143      1.0  0.36058  0.43541  0.34583  1.0000
  C   C144      1.0  0.37357  0.47457  0.34611  1.0000
  C   C145      1.0  0.34702  0.50584  0.34579  1.0000
  C   C146      1.0  0.30675  0.49766  0.34494  1.0000
  C   C147      1.0  0.29305  0.45862  0.34499  1.0000
  C   C148      1.0  0.32019  0.42764  0.34509  1.0000
  H   H70       1.0  0.28735  0.52028  0.34375  1.0000
  H   H71       1.0  0.31055  0.39929  0.34395  1.0000
  H   H72       1.0  0.40287  0.48041  0.34557  1.0000
  C   C149      1.0  0.98779  0.51786  0.42309  1.0000
  C   C150      1.0  0.01687  0.48898  0.42287  1.0000
  H   H73       1.0  0.02672  0.47846  0.48321  1.0000
  H   H74       1.0  0.97734  0.52760  0.48360  1.0000
  C   C151      1.0  0.48803  0.98648  0.42316  1.0000
  C   C152      1.0  0.51714  0.01559  0.42287  1.0000
  H   H75       1.0  0.52747  0.02575  0.48319  1.0000
  H   H76       1.0  0.47797  0.97626  0.48368  1.0000
  C   C153      1.0  0.06879  0.33542  0.34522  1.0000
  C   C154      1.0  0.06509  0.31465  0.42725  1.0000
  C   C155      1.0  0.05665  0.27388  0.42696  1.0000
  C   C156      1.0  0.05203  0.25355  0.34459  1.0000
  N   N21       1.0  0.05347  0.25530  0.50774  1.0000
  C   C157      1.0  0.05793  0.27371  0.58794  1.0000
  C   C158      1.0  0.06634  0.31388  0.58822  1.0000
  N   N22       1.0  0.06961  0.33275  0.50829  1.0000
  H   H77       1.0  0.05527  0.25849  0.64676  1.0000
  H   H78       1.0  0.06996  0.32875  0.64724  1.0000
  C   C159      1.0  0.93563  0.67213  0.34568  1.0000
  C   C160      1.0  0.94065  0.69273  0.42757  1.0000
  C   C161      1.0  0.94939  0.73345  0.42701  1.0000
  C   C162      1.0  0.95304  0.75389  0.34455  1.0000
  N   N23       1.0  0.95374  0.75189  0.50767  1.0000
  C   C163      1.0  0.95020  0.73340  0.58800  1.0000
  C   C164      1.0  0.94154  0.69329  0.58856  1.0000
  N   N24       1.0  0.93709  0.67456  0.50876  1.0000
  H   H79       1.0  0.95373  0.74853  0.64672  1.0000
  H   H80       1.0  0.93859  0.67836  0.64771  1.0000
  C   C165      1.0  0.67043  0.06884  0.34489  1.0000
  C   C166      1.0  0.69088  0.06419  0.42691  1.0000
  C   C167      1.0  0.73143  0.05583  0.42665  1.0000
  C   C168      1.0  0.75187  0.05216  0.34434  1.0000
  N   N25       1.0  0.74971  0.05188  0.50747  1.0000
  C   C169      1.0  0.73122  0.05547  0.58766  1.0000
  C   C170      1.0  0.69129  0.06376  0.58791  1.0000
  N   N26       1.0  0.67271  0.06781  0.50795  1.0000
  H   H81       1.0  0.74623  0.05226  0.64650  1.0000
  H   H82       1.0  0.67636  0.06675  0.64693  1.0000
  C   C171      1.0  0.33409  0.93476  0.34532  1.0000
  C   C172      1.0  0.31334  0.93881  0.42710  1.0000
  C   C173      1.0  0.27310  0.94853  0.42639  1.0000
  C   C174      1.0  0.25330  0.95429  0.34389  1.0000
  N   N27       1.0  0.25449  0.95188  0.50696  1.0000
  C   C175      1.0  0.27239  0.94649  0.58732  1.0000
  C   C176      1.0  0.31203  0.93691  0.58803  1.0000
  N   N28       1.0  0.33091  0.93342  0.50831  1.0000
  H   H83       1.0  0.25716  0.94934  0.64597  1.0000
  H   H84       1.0  0.32651  0.93259  0.64719  1.0000
  C   C177      1.0  0.44848  0.77214  0.42352  1.0000
  C   C178      1.0  0.43942  0.81221  0.42342  1.0000
  H   H85       1.0  0.43649  0.82634  0.48381  1.0000
  H   H86       1.0  0.45191  0.75817  0.48396  1.0000
  C   C179      1.0  0.55743  0.23086  0.42306  1.0000
  C   C180      1.0  0.56595  0.19066  0.42282  1.0000
  H   H87       1.0  0.56963  0.17666  0.48315  1.0000
  H   H88       1.0  0.55502  0.24501  0.48354  1.0000
  C   C181      1.0  0.77379  0.55726  0.42332  1.0000
  C   C182      1.0  0.81388  0.56594  0.42340  1.0000
  H   H89       1.0  0.82785  0.56917  0.48385  1.0000
  H   H90       1.0  0.75973  0.55427  0.48372  1.0000
  C   C183      1.0  0.23160  0.44640  0.42385  1.0000
  C   C184      1.0  0.19131  0.43890  0.42333  1.0000
  H   H91       1.0  0.17721  0.43534  0.48354  1.0000
  H   H92       1.0  0.24570  0.44838  0.48442  1.0000
  C   C185      1.0  0.14429  0.04829  0.34317  1.0000
  C   C186      1.0  0.13200  0.06504  0.42553  1.0000
  C   C187      1.0  0.10838  0.09909  0.42592  1.0000
  C   C188      1.0  0.09681  0.11664  0.34392  1.0000
  N   N29       1.0  0.09588  0.11293  0.50686  1.0000
  C   C189      1.0  0.10519  0.09616  0.58667  1.0000
  C   C190      1.0  0.12843  0.06257  0.58629  1.0000
  N   N30       1.0  0.14070  0.04822  0.50615  1.0000
  H   H93       1.0  0.09509  0.10766  0.64559  1.0000
  H   H94       1.0  0.13576  0.04889  0.64493  1.0000
  C   C191      1.0  0.86168  0.95945  0.34509  1.0000
  C   C192      1.0  0.87482  0.94318  0.42724  1.0000
  C   C193      1.0  0.89830  0.90906  0.42730  1.0000
  C   C194      1.0  0.90884  0.89097  0.34517  1.0000
  N   N31       1.0  0.91162  0.89565  0.50792  1.0000
  C   C195      1.0  0.90324  0.91291  0.58772  1.0000
  C   C196      1.0  0.88011  0.94658  0.58765  1.0000
  N   N32       1.0  0.86703  0.96051  0.50780  1.0000
  H   H95       1.0  0.91394  0.90172  0.64638  1.0000
  H   H96       1.0  0.87346  0.96063  0.64627  1.0000
  C   C197      1.0  0.95804  0.14423  0.34379  1.0000
  C   C198      1.0  0.94047  0.13293  0.42603  1.0000
  C   C199      1.0  0.90564  0.11028  0.42598  1.0000
  C   C200      1.0  0.88815  0.09888  0.34369  1.0000
  N   N33       1.0  0.89101  0.09846  0.50681  1.0000
  C   C201      1.0  0.90766  0.10763  0.58687  1.0000
  C   C202      1.0  0.94196  0.13001  0.58691  1.0000
  N   N34       1.0  0.95714  0.14152  0.50690  1.0000
  H   H97       1.0  0.89554  0.09807  0.64569  1.0000
  H   H98       1.0  0.95558  0.13719  0.64576  1.0000
  C   C203      1.0  0.04738  0.86302  0.34381  1.0000
  C   C204      1.0  0.06505  0.87451  0.42583  1.0000
  C   C205      1.0  0.09968  0.89743  0.42533  1.0000
  C   C206      1.0  0.11688  0.90900  0.34285  1.0000
  N   N35       1.0  0.11445  0.90936  0.50595  1.0000
  C   C207      1.0  0.09808  0.90005  0.58622  1.0000
  C   C208      1.0  0.06392  0.87745  0.58673  1.0000
  N   N36       1.0  0.04864  0.86580  0.50692  1.0000
  H   H99       1.0  0.11028  0.90969  0.64488  1.0000
  H   H100      1.0  0.05053  0.87014  0.64576  1.0000
  C   C209      1.0  0.39636  0.59661  0.42418  1.0000
  C   C210      1.0  0.37356  0.56239  0.42473  1.0000
  H   H101      1.0  0.36758  0.54929  0.48521  1.0000
  H   H102      1.0  0.40633  0.60738  0.48430  1.0000
  C   C211      1.0  0.61000  0.40603  0.42316  1.0000
  C   C212      1.0  0.63301  0.44014  0.42317  1.0000
  H   H103      1.0  0.63938  0.45315  0.48353  1.0000
  H   H104      1.0  0.60038  0.39522  0.48354  1.0000
  C   C213      1.0  0.59936  0.60981  0.42295  1.0000
  C   C214      1.0  0.56514  0.63221  0.42299  1.0000
  H   H105      1.0  0.55237  0.63872  0.48342  1.0000
  H   H106      1.0  0.61043  0.60066  0.48337  1.0000
  C   C215      1.0  0.40662  0.39367  0.42488  1.0000
  C   C216      1.0  0.44091  0.37140  0.42455  1.0000
  H   H107      1.0  0.45426  0.36562  0.48471  1.0000
  H   H108      1.0  0.39606  0.40341  0.48530  1.0000
