data_image0
_chemical_formula_structural       H2C5HC6HCHC2HN2COCH3NC2OCHNH2C2OCH2NHCNCH2NHC2OCHNC8HC7HCH3C2H2C8HC7HCH4C4H3NC2OCH3N2C2OCH3N2C2OHN2C2OCH3NC4H2C2H3C2H2CNCOCH3NH2CNCOCH3NCNCOCH3NCNCOCH3N
_chemical_formula_sum              "H66 C96 N24 O12"
_cell_length_a       30.7359
_cell_length_b       30.736
_cell_length_c       14.6548
_cell_angle_alpha    90.0002
_cell_angle_beta     89.9998
_cell_angle_gamma    120

_space_group_name_H-M_alt    "P 1"
_space_group_IT_number       1

loop_
  _space_group_symop_operation_xyz
  'x, y, z'

loop_
  _atom_site_type_symbol
  _atom_site_label
  _atom_site_symmetry_multiplicity
  _atom_site_fract_x
  _atom_site_fract_y
  _atom_site_fract_z
  _atom_site_occupancy
  H   H1        1.0  0.15128  0.90414  0.24459  1.0000
  H   H2        1.0  0.17449  0.86483  0.20772  1.0000
  C   C1        1.0  0.05589  0.56065  0.35941  1.0000
  C   C2        1.0  0.03996  0.46152  0.35647  1.0000
  C   C3        1.0  0.09048  0.50185  0.35658  1.0000
  C   C4        1.0  0.09762  0.55184  0.35789  1.0000
  C   C5        1.0  0.14583  0.59500  0.35457  1.0000
  H   H3        1.0  0.03378  0.42550  0.35643  1.0000
  C   C6        1.0  0.06369  0.61140  0.35941  1.0000
  C   C7        1.0  0.02196  0.62021  0.35781  1.0000
  C   C8        1.0  0.02911  0.67020  0.35651  1.0000
  C   C9        1.0  0.07962  0.71054  0.35644  1.0000
  C   C10       1.0  0.12234  0.70451  0.35915  1.0000
  C   C11       1.0  0.11354  0.65399  0.35918  1.0000
  H   H4        1.0  0.08581  0.74655  0.35640  1.0000
  C   C12       1.0  0.15351  0.64372  0.35545  1.0000
  H   H5        1.0  0.17747  0.59287  0.34882  1.0000
  C   C13       1.0  0.12832  0.48742  0.35578  1.0000
  C   C14       1.0  0.17122  0.74836  0.36276  1.0000
  H   H6        1.0  0.11696  0.44996  0.35170  1.0000
  N   N1        1.0  0.17882  0.51790  0.36169  1.0000
  N   N2        1.0  0.21670  0.46599  0.35150  1.0000
  C   C15       1.0  0.25775  0.45979  0.34916  1.0000
  O   O1        1.0  0.25092  0.41254  0.33982  1.0000
  C   C16       1.0  0.24686  0.39714  0.24608  1.0000
  H   H7        1.0  0.24167  0.35937  0.24471  1.0000
  H   H8        1.0  0.28098  0.42189  0.20779  1.0000
  H   H9        1.0  0.21449  0.39598  0.21272  1.0000
  N   N3        1.0  0.28286  0.92912  0.35145  1.0000
  C   C17       1.0  0.23561  0.88808  0.34912  1.0000
  C   C18       1.0  0.22937  0.83944  0.35839  1.0000
  O   O2        1.0  0.19519  0.89490  0.33974  1.0000
  C   C19       1.0  0.18386  0.89895  0.24599  1.0000
  H   H10       1.0  0.21508  0.93132  0.21262  1.0000
  N   N4        1.0  0.18289  0.79727  0.35625  1.0000
  H   H11       1.0  0.18998  0.67141  0.35009  1.0000
  H   H12       1.0  0.20147  0.74387  0.37163  1.0000
  C   C20       1.0  0.21949  0.51142  0.36110  1.0000
  C   C21       1.0  0.26802  0.55385  0.37009  1.0000
  O   O3        1.0  0.27541  0.60147  0.37642  1.0000
  C   C22       1.0  0.28020  0.61879  0.46896  1.0000
  H   H13       1.0  0.28576  0.65670  0.46759  1.0000
  H   H14       1.0  0.24624  0.59505  0.50845  1.0000
  N   N5        1.0  0.27226  0.83707  0.36758  1.0000
  H   H15       1.0  0.36656  0.02885  0.35159  1.0000
  C   C23       1.0  0.30639  0.50219  0.35841  1.0000
  N   N6        1.0  0.34856  0.49788  0.35627  1.0000
  C   C24       1.0  0.37093  0.21009  0.24599  1.0000
  H   H16       1.0  0.33317  0.17751  0.24460  1.0000
  H   H17       1.0  0.36978  0.24131  0.21263  1.0000
  N   N7        1.0  0.30876  0.54745  0.36757  1.0000
  H   H18       1.0  0.31263  0.62028  0.50275  1.0000
  C   C25       1.0  0.32550  0.92633  0.36108  1.0000
  C   C26       1.0  0.31940  0.87780  0.37008  1.0000
  O   O4        1.0  0.35963  0.87041  0.37646  1.0000
  C   C27       1.0  0.37215  0.86564  0.46903  1.0000
  H   H19       1.0  0.34120  0.83323  0.50282  1.0000
  N   N8        1.0  0.37266  0.96700  0.36166  1.0000
  C   C28       1.0  0.58517  0.60750  0.35943  1.0000
  C   C29       1.0  0.62775  0.60024  0.35917  1.0000
  C   C30       1.0  0.67827  0.64195  0.35914  1.0000
  C   C31       1.0  0.68430  0.69071  0.35646  1.0000
  C   C32       1.0  0.64396  0.70088  0.35653  1.0000
  C   C33       1.0  0.59398  0.65804  0.35786  1.0000
  C   C34       1.0  0.61749  0.55001  0.35530  1.0000
  C   C35       1.0  0.55082  0.66308  0.35441  1.0000
  H   H20       1.0  0.72031  0.72054  0.35637  1.0000
  C   C36       1.0  0.53442  0.56455  0.35942  1.0000
  C   C37       1.0  0.52561  0.51401  0.35781  1.0000
  C   C38       1.0  0.47562  0.47117  0.35650  1.0000
  C   C39       1.0  0.43529  0.48135  0.35646  1.0000
  C   C40       1.0  0.44132  0.53010  0.35916  1.0000
  C   C41       1.0  0.49183  0.57181  0.35917  1.0000
  C   C42       1.0  0.56877  0.50897  0.35433  1.0000
  H   H21       1.0  0.39927  0.45152  0.35637  1.0000
  C   C43       1.0  0.50210  0.62205  0.35541  1.0000
  H   H22       1.0  0.56663  0.47520  0.34831  1.0000
  H   H23       1.0  0.64518  0.54124  0.34964  1.0000
  H   H24       1.0  0.55295  0.69685  0.34849  1.0000
  C   C44       1.0  0.65839  0.75315  0.35572  1.0000
  C   C45       1.0  0.46120  0.41890  0.35570  1.0000
  H   H25       1.0  0.69585  0.77926  0.35163  1.0000
  H   H26       1.0  0.42373  0.39279  0.35162  1.0000
  C   C46       1.0  0.53832  0.08993  0.35942  1.0000
  C   C47       1.0  0.54558  0.13977  0.35917  1.0000
  C   C48       1.0  0.50386  0.14858  0.35914  1.0000
  C   C49       1.0  0.45511  0.10585  0.35642  1.0000
  C   C50       1.0  0.44494  0.05534  0.35647  1.0000
  C   C51       1.0  0.48778  0.04820  0.35779  1.0000
  C   C52       1.0  0.59581  0.17974  0.35540  1.0000
  C   C53       1.0  0.48274  1.00000  0.35424  1.0000
  H   H27       1.0  0.42528  0.11204  0.35635  1.0000
  C   C54       1.0  0.58127  0.08213  0.35942  1.0000
  C   C55       1.0  0.63181  0.12386  0.35787  1.0000
  C   C56       1.0  0.67465  0.11671  0.35653  1.0000
  C   C57       1.0  0.66447  0.06620  0.35644  1.0000
  C   C58       1.0  0.61572  0.02348  0.35912  1.0000
  C   C59       1.0  0.57401  0.03228  0.35912  1.0000
  C   C60       1.0  0.63685  0.17206  0.35448  1.0000
  H   H28       1.0  0.69430  0.06001  0.35635  1.0000
  C   C61       1.0  0.52377  0.99231  0.35520  1.0000
  H   H29       1.0  0.67062  0.20369  0.34855  1.0000
  H   H30       1.0  0.60459  0.21620  0.34986  1.0000
  H   H31       1.0  0.51501  0.95587  0.34940  1.0000
  H   H32       1.0  0.44898  0.96838  0.34805  1.0000
  C   C62       1.0  0.39267  0.01750  0.35567  1.0000
  C   C63       1.0  0.61069  0.97460  0.36277  1.0000
  C   C64       1.0  0.72691  0.15455  0.35572  1.0000
  C   C65       1.0  0.50889  0.19745  0.36278  1.0000
  H   H33       1.0  0.57595  0.94437  0.37175  1.0000
  H   H34       1.0  0.75303  0.14319  0.35163  1.0000
  H   H35       1.0  0.54363  0.22769  0.37171  1.0000
  N   N9        1.0  0.67982  0.86297  0.35145  1.0000
  C   C66       1.0  0.68601  0.91022  0.34911  1.0000
  C   C67       1.0  0.64362  0.91645  0.35838  1.0000
  O   O5        1.0  0.73326  0.95063  0.33974  1.0000
  C   C68       1.0  0.74865  0.96197  0.24599  1.0000
  H   H36       1.0  0.78641  0.99454  0.24459  1.0000
  H   H37       1.0  0.72389  0.97133  0.20771  1.0000
  H   H38       1.0  0.74980  0.93075  0.21263  1.0000
  N   N10       1.0  0.64792  0.96293  0.35623  1.0000
  N   N11       1.0  0.90289  0.70606  0.35147  1.0000
  C   C69       1.0  0.86183  0.71225  0.34913  1.0000
  C   C70       1.0  0.81320  0.66986  0.35841  1.0000
  O   O6        1.0  0.86866  0.75950  0.33974  1.0000
  C   C71       1.0  0.87271  0.77488  0.24599  1.0000
  H   H39       1.0  0.87790  0.81264  0.24459  1.0000
  H   H40       1.0  0.83859  0.75012  0.20772  1.0000
  H   H41       1.0  0.90508  0.77603  0.21263  1.0000
  N   N12       1.0  0.77102  0.67416  0.35626  1.0000
  N   N13       1.0  0.43976  0.30909  0.35145  1.0000
  C   C72       1.0  0.43356  0.26184  0.34912  1.0000
  C   C73       1.0  0.47596  0.25560  0.35839  1.0000
  O   O7        1.0  0.38632  0.22142  0.33974  1.0000
  H   H42       1.0  0.39569  0.20072  0.20772  1.0000
  N   N14       1.0  0.47165  0.20912  0.35625  1.0000
  N   N15       1.0  0.83673  0.24294  0.35146  1.0000
  C   C74       1.0  0.88398  0.28399  0.34912  1.0000
  C   C75       1.0  0.89022  0.33262  0.35838  1.0000
  O   O8        1.0  0.92440  0.27716  0.33976  1.0000
  C   C76       1.0  0.93574  0.27311  0.24602  1.0000
  H   H43       1.0  0.96831  0.26792  0.24464  1.0000
  H   H44       1.0  0.94511  0.30723  0.20774  1.0000
  H   H45       1.0  0.90452  0.24073  0.21265  1.0000
  N   N16       1.0  0.93670  0.37479  0.35624  1.0000
  C   C77       1.0  0.00605  0.51807  0.35912  1.0000
  C   C78       1.0  0.99724  0.46755  0.35914  1.0000
  C   C79       1.0  0.96608  0.52834  0.35523  1.0000
  C   C80       1.0  0.97376  0.57706  0.35440  1.0000
  H   H46       1.0  0.94213  0.57919  0.34836  1.0000
  H   H47       1.0  0.92962  0.50065  0.34972  1.0000
  C   C81       1.0  0.99127  0.68463  0.35573  1.0000
  C   C82       1.0  0.94837  0.42370  0.36275  1.0000
  H   H48       1.0  0.00263  0.72209  0.35165  1.0000
  H   H49       1.0  0.91812  0.42820  0.37164  1.0000
  H   H50       1.0  0.47441  0.63082  0.34979  1.0000
  C   C83       1.0  0.39747  0.53512  0.36279  1.0000
  C   C84       1.0  0.72212  0.63693  0.36279  1.0000
  H   H51       1.0  0.40196  0.56986  0.37169  1.0000
  H   H52       1.0  0.71762  0.60218  0.37174  1.0000
  C   C85       1.0  0.63439  0.82033  0.36108  1.0000
  N   N17       1.0  0.59836  0.87356  0.36758  1.0000
  C   C86       1.0  0.59196  0.82642  0.37008  1.0000
  O   O9        1.0  0.54434  0.78619  0.37648  1.0000
  C   C87       1.0  0.52705  0.77368  0.46904  1.0000
  H   H53       1.0  0.48914  0.74133  0.46771  1.0000
  H   H54       1.0  0.52557  0.80463  0.50282  1.0000
  H   H55       1.0  0.55081  0.76348  0.50850  1.0000
  N   N18       1.0  0.62790  0.77317  0.36167  1.0000
  H   H56       1.0  0.40449  0.86008  0.46769  1.0000
  H   H57       1.0  0.38236  0.89962  0.50847  1.0000
  C   C88       1.0  0.90010  0.66063  0.36112  1.0000
  N   N19       1.0  0.81083  0.62460  0.36760  1.0000
  C   C89       1.0  0.85157  0.61820  0.37011  1.0000
  O   O10       1.0  0.84418  0.57058  0.37649  1.0000
  C   C90       1.0  0.83940  0.55329  0.46906  1.0000
  H   H58       1.0  0.83384  0.51538  0.46771  1.0000
  H   H59       1.0  0.80699  0.55182  0.50285  1.0000
  H   H60       1.0  0.87338  0.57704  0.50850  1.0000
  N   N20       1.0  0.94077  0.65414  0.36169  1.0000
  C   C91       1.0  0.48519  0.35173  0.36109  1.0000
  N   N21       1.0  0.52122  0.29849  0.36758  1.0000
  C   C92       1.0  0.52762  0.34563  0.37011  1.0000
  O   O11       1.0  0.57524  0.38585  0.37646  1.0000
  C   C93       1.0  0.59255  0.39839  0.46901  1.0000
  H   H61       1.0  0.63046  0.43073  0.46765  1.0000
  H   H62       1.0  0.59402  0.36744  0.50282  1.0000
  H   H63       1.0  0.56880  0.40861  0.50846  1.0000
  N   N22       1.0  0.49169  0.39889  0.36167  1.0000
  C   C94       1.0  0.79409  0.24573  0.36108  1.0000
  N   N23       1.0  0.84733  0.33499  0.36756  1.0000
  C   C95       1.0  0.80019  0.29425  0.37007  1.0000
  O   O12       1.0  0.75996  0.30164  0.37645  1.0000
  C   C96       1.0  0.74745  0.30642  0.46901  1.0000
  H   H64       1.0  0.71510  0.31198  0.46767  1.0000
  H   H65       1.0  0.77839  0.33885  0.50278  1.0000
  H   H66       1.0  0.73724  0.27246  0.50847  1.0000
  N   N24       1.0  0.74693  0.20505  0.36166  1.0000
