data_image0
_chemical_formula_structural       C3OH2CNC6H4C6H4NCHC5H4C5H5COHCHC13H5C13H5C2HNCHNCHNCNCHNCHNCHCNC2H2C2NC2OH3CNHC2NC2OH3CNC2OH2C3OH3C2NC2OH3C2NC2OH3C2NC2OH3C2NC2OH3C2NC2OH3C2NC2OH5C24H17C24H15C24H15C24H15C24H15C24H15C24H15C24H15C24H15C24H15CNC2OH3C2NC2OH3CNC2OH3C2NC2OH3C2NC2OH3C2NC2OH3NCHNCHCHNCHNCN2CHNCHNCHNCHNCHNCH
_chemical_formula_sum              "C378 O18 H252 N36"
_cell_length_a       75.5429
_cell_length_b       75.5428
_cell_length_c       14.9275
_cell_angle_alpha    90
_cell_angle_beta     90
_cell_angle_gamma    120

_space_group_name_H-M_alt    "P 1"
_space_group_IT_number       1

loop_
  _space_group_symop_operation_xyz
  'x, y, z'

loop_
  _atom_site_type_symbol
  _atom_site_label
  _atom_site_symmetry_multiplicity
  _atom_site_fract_x
  _atom_site_fract_y
  _atom_site_fract_z
  _atom_site_occupancy
  C   C1        1.0  0.01988  0.80600  0.32350  1.0000
  C   C2        1.0  0.00755  0.79791  0.24546  1.0000
  C   C3        1.0  0.01532  0.80030  0.15221  1.0000
  O   O1        1.0  0.02945  0.82115  0.12975  1.0000
  H   H1        1.0  0.02297  0.79144  0.14380  1.0000
  H   H2        1.0  0.02204  0.82879  0.13017  1.0000
  C   C4        1.0  0.02148  0.20135  0.33477  1.0000
  N   N1        1.0  0.01141  0.19870  0.25595  1.0000
  C   C5        1.0  0.08732  0.23391  0.33591  1.0000
  C   C6        1.0  0.07609  0.21764  0.39637  1.0000
  C   C7        1.0  0.05455  0.20706  0.39690  1.0000
  C   C8        1.0  0.04335  0.21209  0.33604  1.0000
  C   C9        1.0  0.05465  0.22816  0.27459  1.0000
  C   C10       1.0  0.07618  0.23899  0.27515  1.0000
  H   H3        1.0  0.08353  0.21356  0.44195  1.0000
  H   H4        1.0  0.04714  0.19529  0.44132  1.0000
  H   H5        1.0  0.08368  0.25048  0.22945  1.0000
  H   H6        1.0  0.04729  0.23245  0.22949  1.0000
  C   C11       1.0  0.08580  0.83920  0.33328  1.0000
  C   C12       1.0  0.07491  0.82040  0.28656  1.0000
  C   C13       1.0  0.05340  0.80939  0.28396  1.0000
  C   C14       1.0  0.04171  0.81694  0.32577  1.0000
  C   C15       1.0  0.05243  0.83547  0.37406  1.0000
  C   C16       1.0  0.07396  0.84634  0.37764  1.0000
  H   H7        1.0  0.04638  0.79553  0.25251  1.0000
  H   H8        1.0  0.08255  0.81449  0.25268  1.0000
  H   H9        1.0  0.04462  0.84139  0.40663  1.0000
  H   H10       1.0  0.08089  0.85949  0.41466  1.0000
  N   N2        1.0  0.00987  0.80362  0.40244  1.0000
  C   C17       1.0  0.00906  0.19291  0.41127  1.0000
  H   H11       1.0  0.01517  0.19430  0.47365  1.0000
  C   C18       1.0  0.14218  0.24515  0.33600  1.0000
  C   C19       1.0  0.14175  0.27781  0.33951  1.0000
  C   C20       1.0  0.12015  0.26657  0.33876  1.0000
  C   C21       1.0  0.10920  0.24496  0.33674  1.0000
  C   C22       1.0  0.12049  0.23461  0.33509  1.0000
  H   H12       1.0  0.13310  0.20912  0.41465  1.0000
  H   H13       1.0  0.13636  0.30320  0.44835  1.0000
  H   H14       1.0  0.11263  0.21901  0.32991  1.0000
  H   H15       1.0  0.11222  0.27430  0.33945  1.0000
  C   C23       1.0  0.10784  0.85041  0.33602  1.0000
  C   C24       1.0  0.11929  0.84019  0.33869  1.0000
  C   C25       1.0  0.14092  0.85083  0.33953  1.0000
  C   C26       1.0  0.14062  0.88339  0.33675  1.0000
  C   C27       1.0  0.11899  0.87210  0.33512  1.0000
  H   H16       1.0  0.13490  0.90905  0.44198  1.0000
  H   H17       1.0  0.13599  0.82014  0.23173  1.0000
  H   H18       1.0  0.11174  0.82458  0.34266  1.0000
  H   H19       1.0  0.11124  0.87995  0.32991  1.0000
  H   H20       1.0  0.18562  0.80170  0.20045  1.0000
  C   C28       1.0  0.18659  0.20161  0.32351  1.0000
  O   O2        1.0  0.17144  0.19603  0.12977  1.0000
  H   H21       1.0  0.16379  0.18098  0.13020  1.0000
  C   C29       1.0  0.18474  0.97110  0.33478  1.0000
  H   H22       1.0  0.18669  0.01633  0.13023  1.0000
  C   C30       1.0  0.15239  0.26682  0.33869  1.0000
  C   C31       1.0  0.15255  0.29968  0.33997  1.0000
  C   C32       1.0  0.16848  0.31097  0.27807  1.0000
  C   C33       1.0  0.17890  0.33249  0.27724  1.0000
  C   C34       1.0  0.17402  0.34363  0.33909  1.0000
  C   C35       1.0  0.15828  0.33228  0.40188  1.0000
  C   C36       1.0  0.14760  0.31075  0.40169  1.0000
  C   C37       1.0  0.15338  0.23432  0.33327  1.0000
  C   C38       1.0  0.17219  0.24224  0.28654  1.0000
  C   C39       1.0  0.18319  0.23173  0.28393  1.0000
  C   C40       1.0  0.17566  0.21250  0.32579  1.0000
  C   C41       1.0  0.15712  0.20469  0.37406  1.0000
  C   C42       1.0  0.14625  0.21535  0.37765  1.0000
  H   H23       1.0  0.17810  0.25578  0.25265  1.0000
  H   H24       1.0  0.15121  0.19096  0.40665  1.0000
  H   H25       1.0  0.15412  0.33961  0.44774  1.0000
  H   H26       1.0  0.17244  0.30357  0.23171  1.0000
  H   H27       1.0  0.16800  0.27489  0.34263  1.0000
  C   C43       1.0  0.15129  0.87244  0.33878  1.0000
  C   C44       1.0  0.15198  0.84003  0.34000  1.0000
  C   C45       1.0  0.14734  0.82410  0.27812  1.0000
  C   C46       1.0  0.15846  0.81369  0.27725  1.0000
  C   C47       1.0  0.17447  0.81856  0.33913  1.0000
  C   C48       1.0  0.17886  0.83430  0.40193  1.0000
  C   C49       1.0  0.16800  0.84497  0.40175  1.0000
  C   C50       1.0  0.15145  0.90526  0.33591  1.0000
  C   C51       1.0  0.14642  0.91650  0.39636  1.0000
  C   C52       1.0  0.15739  0.93804  0.39692  1.0000
  C   C53       1.0  0.17362  0.94924  0.33604  1.0000
  C   C54       1.0  0.17837  0.93793  0.27457  1.0000
  C   C55       1.0  0.16767  0.91640  0.27512  1.0000
  H   H28       1.0  0.15303  0.94545  0.44134  1.0000
  H   H29       1.0  0.17167  0.90890  0.22947  1.0000
  H   H30       1.0  0.17171  0.85623  0.44835  1.0000
  H   H31       1.0  0.15437  0.80215  0.23183  1.0000
  H   H32       1.0  0.16695  0.88037  0.33946  1.0000
  C   C56       1.0  0.18461  0.36549  0.33990  1.0000
  C   C57       1.0  0.18573  0.80797  0.33994  1.0000
  H   H33       1.0  0.18403  0.97742  0.47368  1.0000
  N   N3        1.0  0.20215  0.39845  0.27112  1.0000
  C   C58       1.0  0.19259  0.37782  0.26282  1.0000
  H   H34       1.0  0.19088  0.37164  0.20041  1.0000
  N   N4        1.0  0.59412  0.79142  0.27116  1.0000
  C   C59       1.0  0.61475  0.80247  0.26284  1.0000
  H   H35       1.0  0.62094  0.80696  0.20043  1.0000
  N   N5        1.0  0.20116  0.79043  0.27117  1.0000
  C   C60       1.0  0.19010  0.80000  0.26286  1.0000
  N   N6        1.0  0.79614  0.58841  0.27120  1.0000
  C   C61       1.0  0.80572  0.60904  0.26287  1.0000
  H   H36       1.0  0.80741  0.61523  0.20047  1.0000
  N   N7        1.0  0.40418  0.19546  0.27110  1.0000
  C   C62       1.0  0.38354  0.18439  0.26279  1.0000
  H   H37       1.0  0.37736  0.17991  0.20039  1.0000
  N   N8        1.0  0.79714  0.19644  0.27115  1.0000
  C   C63       1.0  0.80819  0.18686  0.26282  1.0000
  H   H38       1.0  0.81269  0.18517  0.20042  1.0000
  C   C64       1.0  0.20707  0.17902  0.33476  1.0000
  N   N9        1.0  0.20441  0.18643  0.25593  1.0000
  C   C65       1.0  0.19468  0.19738  0.24546  1.0000
  C   C66       1.0  0.19229  0.20275  0.15221  1.0000
  H   H39       1.0  0.19837  0.19623  0.10392  1.0000
  H   H40       1.0  0.20114  0.21926  0.14379  1.0000
  C   C67       1.0  0.79098  0.97270  0.32352  1.0000
  C   C68       1.0  0.81354  0.01576  0.33478  1.0000
  N   N10       1.0  0.80613  0.00569  0.25597  1.0000
  C   C69       1.0  0.79517  0.98502  0.24549  1.0000
  C   C70       1.0  0.78983  0.97725  0.15223  1.0000
  O   O3        1.0  0.79658  0.96314  0.12982  1.0000
  H   H41       1.0  0.79633  0.98986  0.10395  1.0000
  H   H42       1.0  0.77332  0.96959  0.14376  1.0000
  H   H43       1.0  0.81163  0.97057  0.13029  1.0000
  C   C71       1.0  0.97681  0.78552  0.33478  1.0000
  N   N11       1.0  0.98688  0.78818  0.25595  1.0000
  H   H44       1.0  0.00271  0.79421  0.10393  1.0000
  C   C72       1.0  0.81171  0.78527  0.32349  1.0000
  C   C73       1.0  0.79121  0.80783  0.33476  1.0000
  N   N12       1.0  0.79387  0.80042  0.25594  1.0000
  C   C74       1.0  0.80359  0.78947  0.24546  1.0000
  C   C75       1.0  0.80601  0.78413  0.15221  1.0000
  O   O4        1.0  0.82687  0.79088  0.12981  1.0000
  H   H45       1.0  0.79992  0.79063  0.10393  1.0000
  H   H46       1.0  0.79717  0.76762  0.14372  1.0000
  H   H47       1.0  0.83450  0.80593  0.13029  1.0000
  C   C76       1.0  0.20733  0.01417  0.32353  1.0000
  N   N13       1.0  0.19215  0.98118  0.25596  1.0000
  C   C77       1.0  0.20309  0.00184  0.24548  1.0000
  C   C78       1.0  0.20846  0.00961  0.15223  1.0000
  O   O5        1.0  0.20175  0.02374  0.12980  1.0000
  H   H48       1.0  0.20195  0.99701  0.10394  1.0000
  H   H49       1.0  0.22497  0.01726  0.14380  1.0000
  C   C79       1.0  0.97842  0.18085  0.32348  1.0000
  C   C80       1.0  0.99074  0.18898  0.24546  1.0000
  C   C81       1.0  0.98298  0.18656  0.15220  1.0000
  O   O6        1.0  0.96887  0.16570  0.12978  1.0000
  H   H50       1.0  0.99559  0.19266  0.10393  1.0000
  H   H51       1.0  0.97531  0.19540  0.14372  1.0000
  H   H52       1.0  0.97630  0.15808  0.13026  1.0000
  C   C82       1.0  0.22526  0.62692  0.33098  1.0000
  C   C83       1.0  0.22393  0.58902  0.33794  1.0000
  N   N14       1.0  0.22981  0.60096  0.26330  1.0000
  C   C84       1.0  0.23051  0.61924  0.25465  1.0000
  C   C85       1.0  0.23859  0.63039  0.16892  1.0000
  O   O7        1.0  0.22299  0.63077  0.11594  1.0000
  H   H53       1.0  0.24576  0.62348  0.12928  1.0000
  H   H54       1.0  0.25044  0.64611  0.18282  1.0000
  H   H55       1.0  0.21318  0.61667  0.09740  1.0000
  C   C86       1.0  0.36567  0.58605  0.33115  1.0000
  C   C87       1.0  0.40359  0.62262  0.33801  1.0000
  N   N15       1.0  0.39163  0.61656  0.26343  1.0000
  C   C88       1.0  0.37335  0.59898  0.25480  1.0000
  C   C89       1.0  0.36218  0.59596  0.16917  1.0000
  O   O8        1.0  0.36176  0.57999  0.11598  1.0000
  H   H56       1.0  0.36909  0.61005  0.12962  1.0000
  H   H57       1.0  0.34647  0.59211  0.18322  1.0000
  H   H58       1.0  0.37585  0.58427  0.09731  1.0000
  C   C90       1.0  0.40653  0.76736  0.33093  1.0000
  C   C91       1.0  0.36996  0.76871  0.33790  1.0000
  N   N16       1.0  0.37602  0.76280  0.26328  1.0000
  C   C92       1.0  0.39359  0.76209  0.25462  1.0000
  C   C93       1.0  0.39664  0.75399  0.16892  1.0000
  O   O9        1.0  0.41262  0.76958  0.11587  1.0000
  H   H59       1.0  0.38256  0.74682  0.12933  1.0000
  H   H60       1.0  0.40050  0.74214  0.18286  1.0000
  H   H61       1.0  0.40833  0.77939  0.09730  1.0000
  C   C94       1.0  0.77294  0.35991  0.33118  1.0000
  C   C95       1.0  0.77434  0.39784  0.33805  1.0000
  N   N17       1.0  0.76843  0.38588  0.26343  1.0000
  C   C96       1.0  0.76773  0.36760  0.25478  1.0000
  C   C97       1.0  0.75958  0.35643  0.16915  1.0000
  O   O10       1.0  0.77513  0.35602  0.11595  1.0000
  H   H62       1.0  0.75239  0.36334  0.12962  1.0000
  H   H63       1.0  0.74772  0.34073  0.18318  1.0000
  H   H64       1.0  0.78494  0.37011  0.09730  1.0000
  C   C98       1.0  0.63260  0.40084  0.33074  1.0000
  C   C99       1.0  0.59471  0.36425  0.33788  1.0000
  N   N18       1.0  0.60664  0.37031  0.26320  1.0000
  C   C100      1.0  0.62491  0.38789  0.25449  1.0000
  C   C101      1.0  0.63606  0.39095  0.16873  1.0000
  O   O11       1.0  0.63645  0.40695  0.11582  1.0000
  H   H65       1.0  0.62913  0.37688  0.12906  1.0000
  H   H66       1.0  0.65177  0.39480  0.18259  1.0000
  H   H67       1.0  0.62235  0.40268  0.09731  1.0000
  C   C102      1.0  0.59180  0.21959  0.33129  1.0000
  C   C103      1.0  0.62833  0.21816  0.33803  1.0000
  N   N19       1.0  0.62228  0.22409  0.26349  1.0000
  C   C104      1.0  0.60472  0.22482  0.25490  1.0000
  C   C105      1.0  0.60171  0.23301  0.16932  1.0000
  O   O12       1.0  0.58575  0.21747  0.11602  1.0000
  H   H68       1.0  0.61581  0.24020  0.12984  1.0000
  H   H69       1.0  0.59786  0.24486  0.18344  1.0000
  H   H70       1.0  0.59003  0.20767  0.09728  1.0000
  H   H71       1.0  0.19706  0.23858  0.25251  1.0000
  H   H72       1.0  0.19043  0.33994  0.23179  1.0000
  C   C106      1.0  0.74743  0.88474  0.33602  1.0000
  C   C107      1.0  0.72576  0.87328  0.33871  1.0000
  C   C108      1.0  0.71476  0.85165  0.33953  1.0000
  C   C109      1.0  0.72600  0.84128  0.33877  1.0000
  C   C110      1.0  0.74762  0.85195  0.33674  1.0000
  C   C111      1.0  0.75796  0.87359  0.33509  1.0000
  C   C112      1.0  0.69290  0.84059  0.33999  1.0000
  C   C113      1.0  0.68161  0.84523  0.27809  1.0000
  C   C114      1.0  0.66008  0.83411  0.27723  1.0000
  C   C115      1.0  0.64894  0.81809  0.33911  1.0000
  C   C116      1.0  0.66029  0.81371  0.40189  1.0000
  C   C117      1.0  0.68182  0.82456  0.40171  1.0000
  C   C118      1.0  0.75825  0.90677  0.33329  1.0000
  C   C119      1.0  0.75034  0.91766  0.28656  1.0000
  C   C120      1.0  0.76085  0.93918  0.28394  1.0000
  C   C121      1.0  0.78008  0.95087  0.32581  1.0000
  C   C122      1.0  0.78789  0.94014  0.37408  1.0000
  C   C123      1.0  0.77723  0.91861  0.37766  1.0000
  C   C124      1.0  0.75866  0.84112  0.33589  1.0000
  C   C125      1.0  0.77494  0.84616  0.39633  1.0000
  C   C126      1.0  0.78551  0.83520  0.39686  1.0000
  C   C127      1.0  0.78048  0.81896  0.33602  1.0000
  C   C128      1.0  0.76442  0.81421  0.27454  1.0000
  C   C129      1.0  0.75358  0.82490  0.27511  1.0000
  H   H73       1.0  0.75400  0.94620  0.25255  1.0000
  H   H74       1.0  0.73679  0.91003  0.25269  1.0000
  H   H75       1.0  0.80162  0.94795  0.40666  1.0000
  H   H76       1.0  0.78345  0.91168  0.41466  1.0000
  H   H77       1.0  0.77901  0.85768  0.44195  1.0000
  H   H78       1.0  0.79727  0.83955  0.44132  1.0000
  H   H79       1.0  0.74208  0.82091  0.22945  1.0000
  H   H80       1.0  0.76011  0.80255  0.22949  1.0000
  H   H81       1.0  0.68938  0.82086  0.44835  1.0000
  H   H82       1.0  0.65297  0.80222  0.44775  1.0000
  H   H83       1.0  0.65263  0.83821  0.23182  1.0000
  H   H84       1.0  0.68901  0.85659  0.23174  1.0000
  H   H85       1.0  0.71769  0.88083  0.34266  1.0000
  H   H86       1.0  0.77356  0.88133  0.32991  1.0000
  H   H87       1.0  0.71827  0.82563  0.33945  1.0000
  H   H88       1.0  0.19002  0.94529  0.22949  1.0000
  H   H89       1.0  0.19035  0.83847  0.44776  1.0000
  C   C130      1.0  0.85612  0.74172  0.33602  1.0000
  C   C131      1.0  0.84591  0.72005  0.33869  1.0000
  C   C132      1.0  0.85654  0.70906  0.33953  1.0000
  C   C133      1.0  0.87815  0.72029  0.33878  1.0000
  C   C134      1.0  0.88910  0.74191  0.33676  1.0000
  C   C135      1.0  0.87781  0.75226  0.33513  1.0000
  C   C136      1.0  0.84574  0.68719  0.34001  1.0000
  C   C137      1.0  0.82981  0.67590  0.27812  1.0000
  C   C138      1.0  0.81940  0.65437  0.27725  1.0000
  C   C139      1.0  0.82428  0.64323  0.33914  1.0000
  C   C140      1.0  0.84001  0.65459  0.40193  1.0000
  C   C141      1.0  0.85068  0.67612  0.40175  1.0000
  C   C142      1.0  0.84491  0.75255  0.33328  1.0000
  C   C143      1.0  0.82612  0.74464  0.28652  1.0000
  C   C144      1.0  0.81510  0.75514  0.28394  1.0000
  C   C145      1.0  0.82265  0.77437  0.32577  1.0000
  C   C146      1.0  0.84118  0.78218  0.37408  1.0000
  C   C147      1.0  0.85205  0.77153  0.37764  1.0000
  C   C148      1.0  0.91097  0.75295  0.33592  1.0000
  C   C149      1.0  0.92221  0.76922  0.39639  1.0000
  C   C150      1.0  0.94375  0.77980  0.39690  1.0000
  C   C151      1.0  0.95495  0.77477  0.33605  1.0000
  C   C152      1.0  0.94364  0.75871  0.27460  1.0000
  C   C153      1.0  0.92211  0.74787  0.27515  1.0000
  H   H90       1.0  0.80124  0.74829  0.25249  1.0000
  H   H91       1.0  0.82020  0.73108  0.25266  1.0000
  H   H92       1.0  0.84710  0.79591  0.40664  1.0000
  H   H93       1.0  0.86520  0.77774  0.41468  1.0000
  H   H94       1.0  0.91476  0.77331  0.44198  1.0000
  H   H95       1.0  0.95116  0.79157  0.44134  1.0000
  H   H96       1.0  0.91461  0.73638  0.22947  1.0000
  H   H97       1.0  0.95100  0.75442  0.22949  1.0000
  H   H98       1.0  0.86195  0.68367  0.44836  1.0000
  H   H99       1.0  0.84418  0.64726  0.44777  1.0000
  H   H100      1.0  0.80786  0.64692  0.23185  1.0000
  H   H101      1.0  0.82585  0.68330  0.23174  1.0000
  H   H102      1.0  0.83029  0.71198  0.34265  1.0000
  H   H103      1.0  0.88566  0.76786  0.32991  1.0000
  H   H104      1.0  0.88608  0.71256  0.33947  1.0000
  C   C154      1.0  0.25087  0.10212  0.33598  1.0000
  C   C155      1.0  0.27254  0.11358  0.33861  1.0000
  C   C156      1.0  0.28353  0.13521  0.33948  1.0000
  C   C157      1.0  0.27229  0.14558  0.33874  1.0000
  C   C158      1.0  0.25067  0.13491  0.33671  1.0000
  C   C159      1.0  0.24033  0.11328  0.33510  1.0000
  C   C160      1.0  0.30540  0.14628  0.33995  1.0000
  C   C161      1.0  0.31669  0.14163  0.27807  1.0000
  C   C162      1.0  0.33821  0.15275  0.27722  1.0000
  C   C163      1.0  0.34935  0.16877  0.33907  1.0000
  C   C164      1.0  0.33800  0.17316  0.40185  1.0000
  C   C165      1.0  0.31647  0.16230  0.40167  1.0000
  C   C166      1.0  0.24004  0.08009  0.33326  1.0000
  C   C167      1.0  0.24795  0.06920  0.28652  1.0000
  C   C168      1.0  0.23745  0.04769  0.28396  1.0000
  C   C169      1.0  0.21822  0.03600  0.32581  1.0000
  C   C170      1.0  0.21041  0.04672  0.37407  1.0000
  C   C171      1.0  0.22107  0.06825  0.37763  1.0000
  C   C172      1.0  0.23963  0.14574  0.33587  1.0000
  C   C173      1.0  0.22336  0.14070  0.39634  1.0000
  C   C174      1.0  0.21278  0.15166  0.39686  1.0000
  C   C175      1.0  0.21781  0.16790  0.33601  1.0000
  C   C176      1.0  0.23387  0.17265  0.27452  1.0000
  C   C177      1.0  0.24471  0.16196  0.27509  1.0000
  H   H105      1.0  0.24430  0.04067  0.25250  1.0000
  H   H106      1.0  0.26150  0.07684  0.25264  1.0000
  H   H107      1.0  0.19668  0.03891  0.40666  1.0000
  H   H108      1.0  0.21485  0.07518  0.41466  1.0000
  H   H109      1.0  0.21928  0.12918  0.44195  1.0000
  H   H110      1.0  0.20102  0.14731  0.44132  1.0000
  H   H111      1.0  0.25620  0.16595  0.22943  1.0000
  H   H112      1.0  0.23817  0.18431  0.22947  1.0000
  H   H113      1.0  0.30892  0.16600  0.44830  1.0000
  H   H114      1.0  0.34532  0.18465  0.44769  1.0000
  H   H115      1.0  0.34566  0.14866  0.23177  1.0000
  H   H116      1.0  0.30929  0.13028  0.23169  1.0000
  H   H117      1.0  0.28061  0.10604  0.34262  1.0000
  H   H118      1.0  0.22473  0.10553  0.32989  1.0000
  H   H119      1.0  0.28002  0.16124  0.33942  1.0000
  C   C178      1.0  0.89046  0.13645  0.33598  1.0000
  C   C179      1.0  0.87901  0.14667  0.33861  1.0000
  C   C180      1.0  0.85738  0.13603  0.33949  1.0000
  C   C181      1.0  0.84700  0.11442  0.33875  1.0000
  C   C182      1.0  0.85767  0.10347  0.33672  1.0000
  C   C183      1.0  0.87931  0.11476  0.33510  1.0000
  C   C184      1.0  0.84632  0.14684  0.33996  1.0000
  C   C185      1.0  0.85095  0.16276  0.27806  1.0000
  C   C186      1.0  0.83984  0.17318  0.27724  1.0000
  C   C187      1.0  0.82383  0.16830  0.33910  1.0000
  C   C188      1.0  0.81945  0.15257  0.40191  1.0000
  C   C189      1.0  0.83030  0.14189  0.40170  1.0000
  C   C190      1.0  0.91249  0.14766  0.33325  1.0000
  C   C191      1.0  0.92338  0.16645  0.28650  1.0000
  C   C192      1.0  0.94490  0.17747  0.28393  1.0000
  C   C193      1.0  0.95659  0.16992  0.32575  1.0000
  C   C194      1.0  0.94586  0.15139  0.37404  1.0000
  C   C195      1.0  0.92434  0.14052  0.37764  1.0000
  C   C196      1.0  0.84684  0.08160  0.33589  1.0000
  C   C197      1.0  0.85187  0.07036  0.39636  1.0000
  C   C198      1.0  0.84090  0.04882  0.39690  1.0000
  C   C199      1.0  0.82467  0.03762  0.33604  1.0000
  C   C200      1.0  0.81992  0.04893  0.27459  1.0000
  C   C201      1.0  0.83062  0.07046  0.27511  1.0000
  H   H120      1.0  0.95192  0.19133  0.25247  1.0000
  H   H121      1.0  0.91575  0.17238  0.25263  1.0000
  H   H122      1.0  0.95367  0.14547  0.40662  1.0000
  H   H123      1.0  0.91740  0.12737  0.41464  1.0000
  H   H124      1.0  0.86340  0.07781  0.44194  1.0000
  H   H125      1.0  0.84527  0.04141  0.44132  1.0000
  H   H126      1.0  0.82662  0.07796  0.22945  1.0000
  H   H127      1.0  0.80826  0.04157  0.22949  1.0000
  H   H128      1.0  0.82659  0.13064  0.44833  1.0000
  H   H129      1.0  0.80795  0.14840  0.44772  1.0000
  H   H130      1.0  0.84393  0.18472  0.23178  1.0000
  H   H131      1.0  0.86231  0.16673  0.23170  1.0000
  H   H132      1.0  0.88655  0.16228  0.34261  1.0000
  H   H133      1.0  0.88705  0.10691  0.32989  1.0000
  H   H134      1.0  0.83135  0.10650  0.33944  1.0000
  C   C202      1.0  0.24777  0.52899  0.33682  1.0000
  C   C203      1.0  0.23731  0.50745  0.33356  1.0000
  C   C204      1.0  0.24793  0.49635  0.33709  1.0000
  C   C205      1.0  0.26965  0.50777  0.34163  1.0000
  C   C206      1.0  0.28053  0.52940  0.34450  1.0000
  C   C207      1.0  0.26926  0.53969  0.34151  1.0000
  C   C208      1.0  0.23703  0.47434  0.33927  1.0000
  C   C209      1.0  0.21825  0.46322  0.38594  1.0000
  C   C210      1.0  0.20758  0.44172  0.38888  1.0000
  C   C211      1.0  0.21548  0.43031  0.34738  1.0000
  C   C212      1.0  0.23399  0.44125  0.29912  1.0000
  C   C213      1.0  0.24454  0.46278  0.29538  1.0000
  C   C214      1.0  0.23747  0.54034  0.33996  1.0000
  C   C215      1.0  0.23098  0.54546  0.26043  1.0000
  C   C216      1.0  0.22551  0.56078  0.26091  1.0000
  C   C217      1.0  0.22631  0.57139  0.34056  1.0000
  C   C218      1.0  0.23217  0.56555  0.42050  1.0000
  C   C219      1.0  0.23779  0.55040  0.42016  1.0000
  C   C220      1.0  0.30230  0.54116  0.34986  1.0000
  C   C221      1.0  0.31176  0.55739  0.41224  1.0000
  C   C222      1.0  0.33279  0.57152  0.40768  1.0000
  C   C223      1.0  0.34513  0.56992  0.34062  1.0000
  C   C224      1.0  0.33600  0.55294  0.28206  1.0000
  C   C225      1.0  0.31487  0.53876  0.28650  1.0000
  H   H135      1.0  0.22178  0.56472  0.20117  1.0000
  H   H136      1.0  0.23154  0.53913  0.20061  1.0000
  H   H137      1.0  0.23406  0.57337  0.47891  1.0000
  H   H138      1.0  0.24338  0.54770  0.47795  1.0000
  H   H139      1.0  0.30320  0.55970  0.45901  1.0000
  H   H140      1.0  0.33874  0.58372  0.45069  1.0000
  H   H141      1.0  0.30855  0.52741  0.23941  1.0000
  H   H142      1.0  0.34455  0.55106  0.23398  1.0000
  H   H143      1.0  0.25775  0.46993  0.25880  1.0000
  H   H144      1.0  0.24014  0.43361  0.26692  1.0000
  H   H145      1.0  0.19374  0.43449  0.42049  1.0000
  H   H146      1.0  0.21212  0.47068  0.41968  1.0000
  H   H147      1.0  0.22170  0.49984  0.32924  1.0000
  H   H148      1.0  0.27684  0.55537  0.34225  1.0000
  H   H149      1.0  0.27774  0.50028  0.34724  1.0000
  C   C226      1.0  0.46359  0.70651  0.33662  1.0000
  C   C227      1.0  0.48513  0.71760  0.33348  1.0000
  C   C228      1.0  0.49622  0.73931  0.33700  1.0000
  C   C229      1.0  0.48480  0.74960  0.34150  1.0000
  C   C230      1.0  0.46317  0.73886  0.34432  1.0000
  C   C231      1.0  0.45288  0.71730  0.34131  1.0000
  C   C232      1.0  0.51823  0.75042  0.33924  1.0000
  C   C233      1.0  0.52935  0.74276  0.38596  1.0000
  C   C234      1.0  0.55085  0.75360  0.38893  1.0000
  C   C235      1.0  0.56226  0.77291  0.34744  1.0000
  C   C236      1.0  0.55132  0.78047  0.29910  1.0000
  C   C237      1.0  0.52980  0.76950  0.29533  1.0000
  C   C238      1.0  0.45224  0.68487  0.33993  1.0000
  C   C239      1.0  0.44710  0.67324  0.26040  1.0000
  C   C240      1.0  0.43181  0.65246  0.26091  1.0000
  C   C241      1.0  0.42120  0.64264  0.34058  1.0000
  C   C242      1.0  0.42705  0.65434  0.42053  1.0000
  C   C243      1.0  0.44220  0.67512  0.42016  1.0000
  C   C244      1.0  0.45141  0.74886  0.34969  1.0000
  C   C245      1.0  0.43517  0.74208  0.41198  1.0000
  C   C246      1.0  0.42105  0.74900  0.40749  1.0000
  C   C247      1.0  0.42266  0.76296  0.34046  1.0000
  C   C248      1.0  0.43965  0.77081  0.28195  1.0000
  C   C249      1.0  0.45383  0.76386  0.28642  1.0000
  H   H150      1.0  0.42784  0.64478  0.20116  1.0000
  H   H151      1.0  0.45342  0.68014  0.20057  1.0000
  H   H152      1.0  0.41925  0.64841  0.47898  1.0000
  H   H153      1.0  0.44491  0.68340  0.47794  1.0000
  H   H154      1.0  0.43285  0.73121  0.45876  1.0000
  H   H155      1.0  0.40883  0.74273  0.45041  1.0000
  H   H156      1.0  0.46517  0.76888  0.23931  1.0000
  H   H157      1.0  0.44153  0.78124  0.23386  1.0000
  H   H158      1.0  0.52265  0.77555  0.25870  1.0000
  H   H159      1.0  0.55897  0.79426  0.26688  1.0000
  H   H160      1.0  0.55808  0.74699  0.42058  1.0000
  H   H161      1.0  0.52189  0.72918  0.41970  1.0000
  H   H162      1.0  0.49273  0.70959  0.32922  1.0000
  H   H163      1.0  0.43720  0.70920  0.34206  1.0000
  H   H164      1.0  0.49229  0.76519  0.34712  1.0000
  C   C250      1.0  0.28609  0.74483  0.33670  1.0000
  C   C251      1.0  0.27499  0.75528  0.33355  1.0000
  C   C252      1.0  0.25328  0.74465  0.33712  1.0000
  C   C253      1.0  0.24300  0.72294  0.34171  1.0000
  C   C254      1.0  0.25374  0.71206  0.34445  1.0000
  C   C255      1.0  0.27531  0.72334  0.34141  1.0000
  C   C256      1.0  0.24217  0.75555  0.33932  1.0000
  C   C257      1.0  0.24983  0.77433  0.38600  1.0000
  C   C258      1.0  0.23899  0.78499  0.38894  1.0000
  C   C259      1.0  0.21968  0.77709  0.34744  1.0000
  C   C260      1.0  0.21211  0.75858  0.29919  1.0000
  C   C261      1.0  0.22309  0.74803  0.29543  1.0000
  C   C262      1.0  0.30773  0.75513  0.33997  1.0000
  C   C263      1.0  0.31935  0.76164  0.26044  1.0000
  C   C264      1.0  0.34013  0.76711  0.26090  1.0000
  C   C265      1.0  0.34996  0.76632  0.34055  1.0000
  C   C266      1.0  0.33827  0.76048  0.42050  1.0000
  C   C267      1.0  0.31749  0.75484  0.42018  1.0000
  C   C268      1.0  0.24374  0.69029  0.34981  1.0000
  C   C269      1.0  0.25054  0.68083  0.41203  1.0000
  C   C270      1.0  0.24363  0.65980  0.40751  1.0000
  C   C271      1.0  0.22966  0.64746  0.34052  1.0000
  C   C272      1.0  0.22180  0.65659  0.28207  1.0000
  C   C273      1.0  0.22872  0.67771  0.28662  1.0000
  H   H165      1.0  0.34779  0.77080  0.20112  1.0000
  H   H166      1.0  0.31245  0.76102  0.20057  1.0000
  H   H167      1.0  0.34420  0.75860  0.47893  1.0000
  H   H168      1.0  0.30921  0.74926  0.47797  1.0000
  H   H169      1.0  0.26140  0.68939  0.45885  1.0000
  H   H170      1.0  0.24988  0.65384  0.45049  1.0000
  H   H171      1.0  0.22372  0.68404  0.23944  1.0000
  H   H172      1.0  0.21137  0.64804  0.23399  1.0000
  H   H173      1.0  0.21704  0.73483  0.25883  1.0000
  H   H174      1.0  0.19833  0.75244  0.26696  1.0000
  H   H175      1.0  0.24561  0.79884  0.42055  1.0000
  H   H176      1.0  0.26342  0.78046  0.41973  1.0000
  H   H177      1.0  0.28300  0.77089  0.32924  1.0000
  H   H178      1.0  0.28341  0.71576  0.34214  1.0000
  H   H179      1.0  0.22741  0.71484  0.34722  1.0000
  C   C274      1.0  0.75053  0.45789  0.33662  1.0000
  C   C275      1.0  0.76098  0.47943  0.33352  1.0000
  C   C276      1.0  0.75035  0.49051  0.33708  1.0000
  C   C277      1.0  0.72864  0.47909  0.34162  1.0000
  C   C278      1.0  0.71776  0.45746  0.34432  1.0000
  C   C279      1.0  0.72904  0.44718  0.34129  1.0000
  C   C280      1.0  0.76125  0.51253  0.33932  1.0000
  C   C281      1.0  0.78002  0.52364  0.38604  1.0000
  C   C282      1.0  0.79068  0.54514  0.38903  1.0000
  C   C283      1.0  0.78279  0.55655  0.34749  1.0000
  C   C284      1.0  0.76429  0.54562  0.29918  1.0000
  C   C285      1.0  0.75374  0.52409  0.29541  1.0000
  C   C286      1.0  0.76082  0.44655  0.33991  1.0000
  C   C287      1.0  0.76729  0.44138  0.26038  1.0000
  C   C288      1.0  0.77275  0.42607  0.26090  1.0000
  C   C289      1.0  0.77197  0.41548  0.34062  1.0000
  C   C290      1.0  0.76619  0.42138  0.42059  1.0000
  C   C291      1.0  0.76057  0.43653  0.42018  1.0000
  C   C292      1.0  0.69599  0.44569  0.34967  1.0000
  C   C293      1.0  0.68652  0.42944  0.41190  1.0000
  C   C294      1.0  0.66549  0.41530  0.40722  1.0000
  C   C295      1.0  0.65315  0.41695  0.34029  1.0000
  C   C296      1.0  0.66229  0.43396  0.28194  1.0000
  C   C297      1.0  0.68342  0.44814  0.28644  1.0000
  H   H180      1.0  0.77640  0.42205  0.20112  1.0000
  H   H181      1.0  0.76665  0.44765  0.20048  1.0000
  H   H182      1.0  0.76432  0.41358  0.47903  1.0000
  H   H183      1.0  0.75501  0.43926  0.47798  1.0000
  H   H184      1.0  0.69507  0.42710  0.45861  1.0000
  H   H185      1.0  0.65953  0.40309  0.45019  1.0000
  H   H186      1.0  0.68975  0.45948  0.23934  1.0000
  H   H187      1.0  0.65375  0.43586  0.23385  1.0000
  H   H188      1.0  0.74054  0.51694  0.25876  1.0000
  H   H189      1.0  0.75815  0.55327  0.26691  1.0000
  H   H190      1.0  0.80453  0.55237  0.42063  1.0000
  H   H191      1.0  0.78615  0.51618  0.41978  1.0000
  H   H192      1.0  0.77659  0.48704  0.32926  1.0000
  H   H193      1.0  0.72146  0.43150  0.34200  1.0000
  H   H194      1.0  0.72054  0.48657  0.34713  1.0000
  C   C298      1.0  0.53471  0.28039  0.33680  1.0000
  C   C299      1.0  0.51317  0.26930  0.33353  1.0000
  C   C300      1.0  0.50207  0.24759  0.33710  1.0000
  C   C301      1.0  0.51350  0.23730  0.34175  1.0000
  C   C302      1.0  0.53512  0.24804  0.34457  1.0000
  C   C303      1.0  0.54541  0.26960  0.34158  1.0000
  C   C304      1.0  0.48006  0.23649  0.33925  1.0000
  C   C305      1.0  0.46894  0.24415  0.38588  1.0000
  C   C306      1.0  0.44744  0.23330  0.38885  1.0000
  C   C307      1.0  0.43603  0.21399  0.34736  1.0000
  C   C308      1.0  0.44698  0.20642  0.29912  1.0000
  C   C309      1.0  0.46850  0.21740  0.29536  1.0000
  C   C310      1.0  0.54605  0.30203  0.34007  1.0000
  C   C311      1.0  0.55112  0.31365  0.26054  1.0000
  C   C312      1.0  0.56645  0.33442  0.26097  1.0000
  C   C313      1.0  0.57708  0.34425  0.34058  1.0000
  C   C314      1.0  0.57126  0.33256  0.42054  1.0000
  C   C315      1.0  0.55611  0.31178  0.42028  1.0000
  C   C316      1.0  0.54689  0.23804  0.34999  1.0000
  C   C317      1.0  0.56312  0.24481  0.41234  1.0000
  C   C318      1.0  0.57724  0.23789  0.40790  1.0000
  C   C319      1.0  0.57566  0.22398  0.34074  1.0000
  C   C320      1.0  0.55868  0.21613  0.28215  1.0000
  C   C321      1.0  0.54450  0.22308  0.28658  1.0000
  H   H195      1.0  0.57039  0.34210  0.20122  1.0000
  H   H196      1.0  0.54481  0.30675  0.20070  1.0000
  H   H197      1.0  0.57912  0.33849  0.47888  1.0000
  H   H198      1.0  0.55347  0.30350  0.47801  1.0000
  H   H199      1.0  0.56540  0.25564  0.45924  1.0000
  H   H200      1.0  0.58943  0.24414  0.45091  1.0000
  H   H201      1.0  0.53316  0.21806  0.23945  1.0000
  H   H202      1.0  0.55682  0.20573  0.23399  1.0000
  H   H203      1.0  0.47565  0.21134  0.25882  1.0000
  H   H204      1.0  0.43933  0.19263  0.26691  1.0000
  H   H205      1.0  0.44021  0.23992  0.42041  1.0000
  H   H206      1.0  0.47640  0.25773  0.41963  1.0000
  H   H207      1.0  0.50556  0.27731  0.32920  1.0000
  H   H208      1.0  0.56109  0.27770  0.34237  1.0000
  H   H209      1.0  0.50601  0.22171  0.34724  1.0000
  C   C322      1.0  0.71218  0.24199  0.33667  1.0000
  C   C323      1.0  0.72329  0.23156  0.33348  1.0000
  C   C324      1.0  0.74500  0.24219  0.33707  1.0000
  C   C325      1.0  0.75527  0.26391  0.34168  1.0000
  C   C326      1.0  0.74452  0.27478  0.34442  1.0000
  C   C327      1.0  0.72296  0.26349  0.34137  1.0000
  C   C328      1.0  0.75612  0.23130  0.33928  1.0000
  C   C329      1.0  0.74847  0.21253  0.38595  1.0000
  C   C330      1.0  0.75932  0.20188  0.38895  1.0000
  C   C331      1.0  0.77862  0.20978  0.34742  1.0000
  C   C332      1.0  0.78619  0.22829  0.29915  1.0000
  C   C333      1.0  0.77520  0.23883  0.29537  1.0000
  C   C334      1.0  0.69054  0.23169  0.33981  1.0000
  C   C335      1.0  0.67893  0.22526  0.26026  1.0000
  C   C336      1.0  0.65815  0.21978  0.26080  1.0000
  C   C337      1.0  0.64832  0.22052  0.34054  1.0000
  C   C338      1.0  0.66001  0.22629  0.42054  1.0000
  C   C339      1.0  0.68079  0.23193  0.42012  1.0000
  C   C340      1.0  0.75450  0.29654  0.34982  1.0000
  C   C341      1.0  0.74771  0.30599  0.41211  1.0000
  C   C342      1.0  0.75460  0.32702  0.40759  1.0000
  C   C343      1.0  0.76855  0.33937  0.34058  1.0000
  C   C344      1.0  0.77641  0.33025  0.28203  1.0000
  C   C345      1.0  0.76948  0.30912  0.28652  1.0000
  H   H210      1.0  0.65047  0.21609  0.20106  1.0000
  H   H211      1.0  0.68582  0.22584  0.20039  1.0000
  H   H212      1.0  0.65410  0.22822  0.47895  1.0000
  H   H213      1.0  0.68907  0.23752  0.47789  1.0000
  H   H214      1.0  0.73687  0.29743  0.45900  1.0000
  H   H215      1.0  0.74837  0.33297  0.45072  1.0000
  H   H216      1.0  0.77451  0.30281  0.23935  1.0000
  H   H217      1.0  0.78684  0.33881  0.23396  1.0000
  H   H218      1.0  0.78125  0.25203  0.25880  1.0000
  H   H219      1.0  0.79997  0.23444  0.26692  1.0000
  H   H220      1.0  0.75270  0.18802  0.42052  1.0000
  H   H221      1.0  0.73488  0.20639  0.41971  1.0000
  H   H222      1.0  0.71529  0.21595  0.32916  1.0000
  H   H223      1.0  0.71484  0.27105  0.34209  1.0000
  H   H224      1.0  0.77086  0.27201  0.34720  1.0000
  C   C346      1.0  0.20486  0.40851  0.35014  1.0000
  N   N20       1.0  0.18761  0.37563  0.41878  1.0000
  C   C347      1.0  0.19726  0.39631  0.42874  1.0000
  C   C348      1.0  0.20011  0.40425  0.52182  1.0000
  O   O13       1.0  0.22107  0.41845  0.54225  1.0000
  H   H225      1.0  0.19428  0.39174  0.57054  1.0000
  H   H226      1.0  0.19129  0.41191  0.53125  1.0000
  H   H227      1.0  0.22872  0.41105  0.54095  1.0000
  C   C349      1.0  0.58406  0.78408  0.35018  1.0000
  C   C350      1.0  0.62709  0.80684  0.33992  1.0000
  N   N21       1.0  0.61695  0.79970  0.41880  1.0000
  C   C351      1.0  0.59627  0.78867  0.42876  1.0000
  C   C352      1.0  0.58833  0.78360  0.52187  1.0000
  O   O14       1.0  0.57415  0.79039  0.54224  1.0000
  H   H228      1.0  0.60084  0.79027  0.57058  1.0000
  H   H229      1.0  0.58064  0.76712  0.53137  1.0000
  H   H230      1.0  0.58157  0.80544  0.54088  1.0000
  C   C353      1.0  0.20851  0.78772  0.35020  1.0000
  N   N22       1.0  0.19287  0.80496  0.41882  1.0000
  C   C354      1.0  0.20390  0.79532  0.42879  1.0000
  C   C355      1.0  0.20899  0.79246  0.52187  1.0000
  O   O15       1.0  0.20223  0.77151  0.54229  1.0000
  H   H231      1.0  0.20231  0.79830  0.57060  1.0000
  H   H232      1.0  0.22547  0.80128  0.53131  1.0000
  H   H233      1.0  0.18718  0.76386  0.54099  1.0000
  C   C356      1.0  0.79342  0.57835  0.35023  1.0000
  C   C357      1.0  0.81368  0.62138  0.33995  1.0000
  N   N23       1.0  0.81068  0.61124  0.41883  1.0000
  C   C358      1.0  0.80104  0.59056  0.42881  1.0000
  C   C359      1.0  0.79816  0.58262  0.52191  1.0000
  O   O16       1.0  0.77719  0.56845  0.54228  1.0000
  H   H234      1.0  0.80400  0.59514  0.57062  1.0000
  H   H235      1.0  0.80696  0.57494  0.53142  1.0000
  H   H236      1.0  0.76956  0.57587  0.54091  1.0000
  C   C360      1.0  0.41424  0.20282  0.35012  1.0000
  C   C361      1.0  0.37121  0.18003  0.33987  1.0000
  N   N24       1.0  0.38135  0.18718  0.41874  1.0000
  C   C362      1.0  0.40203  0.19821  0.42871  1.0000
  C   C363      1.0  0.40997  0.20331  0.52179  1.0000
  O   O17       1.0  0.42417  0.19656  0.54224  1.0000
  H   H237      1.0  0.39746  0.19664  0.57052  1.0000
  H   H238      1.0  0.41763  0.21980  0.53120  1.0000
  H   H239      1.0  0.41677  0.18150  0.54096  1.0000
  C   C364      1.0  0.78980  0.19916  0.35018  1.0000
  C   C365      1.0  0.81257  0.17890  0.33991  1.0000
  N   N25       1.0  0.80543  0.18190  0.41878  1.0000
  C   C366      1.0  0.79439  0.19154  0.42876  1.0000
  C   C367      1.0  0.78933  0.19442  0.52186  1.0000
  O   O18       1.0  0.79612  0.21538  0.54222  1.0000
  H   H240      1.0  0.79600  0.18858  0.57056  1.0000
  H   H241      1.0  0.77285  0.18562  0.53136  1.0000
  H   H242      1.0  0.81117  0.22302  0.54086  1.0000
  N   N26       1.0  0.18897  0.19398  0.40244  1.0000
  C   C368      1.0  0.19863  0.18300  0.41126  1.0000
  H   H243      1.0  0.20004  0.17830  0.47365  1.0000
  N   N27       1.0  0.79860  0.98271  0.40246  1.0000
  C   C369      1.0  0.80956  0.00333  0.41129  1.0000
  H   H244      1.0  0.81428  0.00945  0.47367  1.0000
  C   C370      1.0  0.98924  0.79396  0.41127  1.0000
  H   H245      1.0  0.98313  0.79255  0.47367  1.0000
  N   N28       1.0  0.80933  0.79289  0.40244  1.0000
  C   C371      1.0  0.79965  0.80385  0.41127  1.0000
  H   H246      1.0  0.79826  0.80857  0.47365  1.0000
  N   N29       1.0  0.19970  0.00416  0.40247  1.0000
  C   C372      1.0  0.18873  0.98353  0.41129  1.0000
  N   N30       1.0  0.98843  0.18324  0.40243  1.0000
  N   N31       1.0  0.21945  0.61513  0.40610  1.0000
  C   C373      1.0  0.21806  0.59657  0.41195  1.0000
  H   H247      1.0  0.21364  0.58888  0.47138  1.0000
  N   N32       1.0  0.37748  0.59205  0.40622  1.0000
  C   C374      1.0  0.39603  0.60922  0.41207  1.0000
  H   H248      1.0  0.40374  0.61249  0.47144  1.0000
  N   N33       1.0  0.40055  0.77317  0.40604  1.0000
  C   C375      1.0  0.38339  0.77457  0.41190  1.0000
  H   H249      1.0  0.38012  0.77900  0.47132  1.0000
  N   N34       1.0  0.77879  0.37172  0.40623  1.0000
  C   C376      1.0  0.78020  0.39029  0.41206  1.0000
  H   H250      1.0  0.78467  0.39801  0.47140  1.0000
  N   N35       1.0  0.62083  0.39485  0.40592  1.0000
  C   C377      1.0  0.60227  0.37768  0.41186  1.0000
  H   H251      1.0  0.59460  0.37441  0.47132  1.0000
  N   N36       1.0  0.59776  0.21373  0.40629  1.0000
  C   C378      1.0  0.61491  0.21230  0.41207  1.0000
  H   H252      1.0  0.61817  0.20782  0.47139  1.0000
