data_image0
_chemical_formula_structural       C2OHCHC2HC5HCHCH2CNOCNO2C3OHC6O2H2C6O2H2C2H2C2H2C2H2C2H2CHC2H2C2H2C2H2C2H2C2H2C2H2C3H2C3H2C3H2C3H2C3H2C6H2NO3C8H2N2O4C5HNO2C8H2N2O4C8H2N2O4C8H2N2O4
_chemical_formula_sum              "C108 O30 H54 N12"
_cell_length_a       31.8045
_cell_length_b       31.8045
_cell_length_c       14.8254
_cell_angle_alpha    90
_cell_angle_beta     90
_cell_angle_gamma    120

_space_group_name_H-M_alt    "P 1"
_space_group_IT_number       1

loop_
  _space_group_symop_operation_xyz
  'x, y, z'

loop_
  _atom_site_type_symbol
  _atom_site_label
  _atom_site_symmetry_multiplicity
  _atom_site_fract_x
  _atom_site_fract_y
  _atom_site_fract_z
  _atom_site_occupancy
  C   C1        1.0  0.03555  0.52000  0.34670  1.0000
  C   C2        1.0  0.06293  0.57116  0.32722  1.0000
  O   O1        1.0  0.04154  0.59678  0.29910  1.0000
  H   H1        1.0  0.03333  0.58855  0.23514  1.0000
  C   C3        1.0  0.06369  0.49752  0.36753  1.0000
  H   H2        1.0  0.04709  0.46212  0.38734  1.0000
  C   C4        1.0  0.11450  0.59787  0.33093  1.0000
  C   C5        1.0  0.14874  0.47529  0.29992  1.0000
  H   H3        1.0  0.12588  0.46694  0.24587  1.0000
  C   C6        1.0  0.13956  0.57267  0.34749  1.0000
  C   C7        1.0  0.11503  0.52256  0.36510  1.0000
  C   C8        1.0  0.14407  0.50009  0.37502  1.0000
  C   C9        1.0  0.14820  0.67756  0.40298  1.0000
  C   C10       1.0  0.14361  0.64959  0.32563  1.0000
  H   H4        1.0  0.12430  0.66181  0.45525  1.0000
  C   C11       1.0  0.18800  0.46665  0.29293  1.0000
  H   H5        1.0  0.19141  0.45096  0.23523  1.0000
  C   C12       1.0  0.17913  0.67140  0.25746  1.0000
  H   H6        1.0  0.17864  0.65139  0.20298  1.0000
  H   H7        1.0  0.17684  0.59145  0.34776  1.0000
  C   C13       1.0  0.17908  0.51470  0.44519  1.0000
  N   N1        1.0  0.17547  0.54041  0.52010  1.0000
  O   O2        1.0  0.17105  0.51805  0.59251  1.0000
  C   C14       1.0  0.18823  0.72526  0.41462  1.0000
  N   N2        1.0  0.19276  0.75191  0.49417  1.0000
  O   O3        1.0  0.19487  0.73030  0.56358  1.0000
  O   O4        1.0  0.15788  0.75959  0.50256  1.0000
  C   C15       1.0  0.98213  0.49176  0.34674  1.0000
  C   C16       1.0  0.90317  0.41388  0.33109  1.0000
  C   C17       1.0  0.95474  0.44060  0.32726  1.0000
  O   O5        1.0  0.97613  0.41498  0.29911  1.0000
  H   H8        1.0  0.98431  0.42320  0.23515  1.0000
  C   C18       1.0  0.52295  0.49329  0.34680  1.0000
  C   C19       1.0  0.60083  0.49221  0.33118  1.0000
  C   C20       1.0  0.57411  0.51706  0.32728  1.0000
  C   C21       1.0  0.49472  0.51848  0.34684  1.0000
  C   C22       1.0  0.44355  0.49471  0.32740  1.0000
  C   C23       1.0  0.41684  0.51956  0.33128  1.0000
  O   O6        1.0  0.59973  0.56407  0.29919  1.0000
  O   O7        1.0  0.41793  0.44771  0.29924  1.0000
  H   H9        1.0  0.59152  0.56407  0.23523  1.0000
  H   H10       1.0  0.42614  0.44774  0.23527  1.0000
  C   C24       1.0  0.52142  0.03261  0.34676  1.0000
  C   C25       1.0  0.52249  0.11156  0.33112  1.0000
  C   C26       1.0  0.49764  0.05999  0.32729  1.0000
  C   C27       1.0  0.49623  0.97919  0.34672  1.0000
  C   C28       1.0  0.52002  0.95181  0.32722  1.0000
  C   C29       1.0  0.49516  0.90024  0.33093  1.0000
  O   O8        1.0  0.45064  0.03861  0.29914  1.0000
  O   O9        1.0  0.56702  0.97320  0.29910  1.0000
  H   H11       1.0  0.45067  0.03043  0.23517  1.0000
  H   H12       1.0  0.56700  0.98142  0.23514  1.0000
  C   C30       1.0  0.34339  0.51070  0.25770  1.0000
  C   C31       1.0  0.29597  0.50280  0.26781  1.0000
  H   H13       1.0  0.36345  0.53026  0.20327  1.0000
  H   H14       1.0  0.28324  0.51655  0.21937  1.0000
  C   C32       1.0  0.54805  0.72425  0.29299  1.0000
  C   C33       1.0  0.53941  0.67636  0.30007  1.0000
  H   H15       1.0  0.56372  0.74332  0.23525  1.0000
  H   H16       1.0  0.54774  0.66182  0.24605  1.0000
  C   C34       1.0  0.50403  0.83559  0.25748  1.0000
  C   C35       1.0  0.51193  0.79608  0.26768  1.0000
  H   H17       1.0  0.48448  0.83606  0.20302  1.0000
  H   H18       1.0  0.49820  0.76958  0.21927  1.0000
  C   C36       1.0  0.29044  0.82677  0.29296  1.0000
  C   C37       1.0  0.33833  0.86602  0.29997  1.0000
  H   H19       1.0  0.27134  0.82338  0.23527  1.0000
  H   H20       1.0  0.35285  0.88891  0.24596  1.0000
  C   C38       1.0  0.21864  0.71882  0.26764  1.0000
  H   H21       1.0  0.24511  0.73158  0.21921  1.0000
  C   C39       1.0  0.82970  0.54510  0.29296  1.0000
  C   C40       1.0  0.86895  0.53647  0.29999  1.0000
  H   H22       1.0  0.82630  0.56080  0.23525  1.0000
  H   H23       1.0  0.89183  0.54482  0.24596  1.0000
  C   C41       1.0  0.67432  0.50108  0.25760  1.0000
  C   C42       1.0  0.72174  0.50897  0.26774  1.0000
  H   H24       1.0  0.65429  0.48153  0.20316  1.0000
  H   H25       1.0  0.73448  0.49523  0.21931  1.0000
  C   C43       1.0  0.46962  0.28755  0.29298  1.0000
  C   C44       1.0  0.47825  0.33544  0.30001  1.0000
  H   H26       1.0  0.45394  0.26847  0.23525  1.0000
  H   H27       1.0  0.46992  0.34999  0.24598  1.0000
  C   C45       1.0  0.51363  0.17620  0.25759  1.0000
  C   C46       1.0  0.50574  0.21573  0.26774  1.0000
  H   H28       1.0  0.53319  0.17573  0.20314  1.0000
  H   H29       1.0  0.51948  0.24221  0.21933  1.0000
  C   C47       1.0  0.72719  0.18501  0.29300  1.0000
  C   C48       1.0  0.67929  0.14576  0.30003  1.0000
  H   H30       1.0  0.74628  0.18840  0.23529  1.0000
  H   H31       1.0  0.66477  0.12288  0.24602  1.0000
  C   C49       1.0  0.83855  0.34037  0.25755  1.0000
  C   C50       1.0  0.79902  0.29296  0.26771  1.0000
  H   H32       1.0  0.83903  0.36040  0.20309  1.0000
  H   H33       1.0  0.77254  0.28021  0.21929  1.0000
  C   C51       1.0  0.95399  0.51424  0.36762  1.0000
  C   C52       1.0  0.90265  0.48920  0.36524  1.0000
  C   C53       1.0  0.87812  0.43909  0.34760  1.0000
  H   H34       1.0  0.97060  0.54966  0.38736  1.0000
  H   H35       1.0  0.84084  0.42031  0.34790  1.0000
  C   C54       1.0  0.50047  0.44267  0.36765  1.0000
  C   C55       1.0  0.52550  0.41637  0.36523  1.0000
  C   C56       1.0  0.57561  0.44194  0.34766  1.0000
  H   H36       1.0  0.46506  0.42388  0.38747  1.0000
  H   H37       1.0  0.59439  0.42344  0.34797  1.0000
  C   C57       1.0  0.44206  0.56983  0.34778  1.0000
  C   C58       1.0  0.49217  0.59540  0.36531  1.0000
  C   C59       1.0  0.51721  0.56910  0.36771  1.0000
  H   H38       1.0  0.42328  0.58832  0.34811  1.0000
  H   H39       1.0  0.55263  0.58791  0.38744  1.0000
  C   C60       1.0  0.57203  0.06075  0.36765  1.0000
  C   C61       1.0  0.59833  0.11208  0.36528  1.0000
  C   C62       1.0  0.57276  0.13662  0.34763  1.0000
  H   H40       1.0  0.59084  0.04414  0.38740  1.0000
  H   H41       1.0  0.59125  0.17390  0.34794  1.0000
  C   C63       1.0  0.44490  0.87518  0.34751  1.0000
  C   C64       1.0  0.41932  0.89971  0.36513  1.0000
  C   C65       1.0  0.44561  0.95105  0.36756  1.0000
  H   H42       1.0  0.42640  0.83790  0.34776  1.0000
  H   H43       1.0  0.42681  0.96764  0.38738  1.0000
  C   C66       1.0  0.21827  0.50561  0.43720  1.0000
  C   C67       1.0  0.22418  0.48250  0.36054  1.0000
  C   C68       1.0  0.26854  0.48159  0.34711  1.0000
  C   C69       1.0  0.28940  0.46582  0.41472  1.0000
  C   C70       1.0  0.33710  0.47349  0.40319  1.0000
  C   C71       1.0  0.36512  0.49695  0.32594  1.0000
  H   H44       1.0  0.35282  0.46530  0.45547  1.0000
  H   H45       1.0  0.24480  0.51965  0.48542  1.0000
  N   N3        1.0  0.26270  0.44367  0.49417  1.0000
  O   O10       1.0  0.28425  0.46732  0.56367  1.0000
  O   O11       1.0  0.21183  0.58230  0.52635  1.0000
  O   O12       1.0  0.25499  0.40109  0.50249  1.0000
  C   C72       1.0  0.51465  0.64691  0.37524  1.0000
  C   C73       1.0  0.50006  0.66737  0.44533  1.0000
  C   C74       1.0  0.50915  0.71565  0.43727  1.0000
  C   C75       1.0  0.53223  0.74463  0.36056  1.0000
  C   C76       1.0  0.53313  0.78989  0.34703  1.0000
  C   C77       1.0  0.54886  0.82654  0.41458  1.0000
  C   C78       1.0  0.54118  0.86656  0.40292  1.0000
  C   C79       1.0  0.51777  0.87113  0.32560  1.0000
  H   H46       1.0  0.54936  0.89049  0.45517  1.0000
  H   H47       1.0  0.49510  0.72816  0.48545  1.0000
  N   N4        1.0  0.57101  0.82204  0.49409  1.0000
  N   N5        1.0  0.47437  0.63809  0.52028  1.0000
  O   O13       1.0  0.54733  0.81996  0.56355  1.0000
  O   O14       1.0  0.43247  0.63256  0.52654  1.0000
  O   O15       1.0  0.61358  0.85693  0.50241  1.0000
  O   O16       1.0  0.49675  0.65608  0.59267  1.0000
  C   C80       1.0  0.36781  0.87067  0.37505  1.0000
  C   C81       1.0  0.34742  0.83563  0.44518  1.0000
  C   C82       1.0  0.29913  0.79644  0.43716  1.0000
  C   C83       1.0  0.27011  0.79055  0.36052  1.0000
  C   C84       1.0  0.22485  0.74620  0.34703  1.0000
  H   H48       1.0  0.28665  0.76988  0.48533  1.0000
  N   N6        1.0  0.37673  0.83922  0.52008  1.0000
  O   O17       1.0  0.38227  0.80286  0.52626  1.0000
  O   O18       1.0  0.35878  0.84360  0.59250  1.0000
  C   C85       1.0  0.87361  0.51167  0.37511  1.0000
  C   C86       1.0  0.83859  0.49706  0.44526  1.0000
  C   C87       1.0  0.79940  0.50615  0.43722  1.0000
  C   C88       1.0  0.79351  0.52926  0.36055  1.0000
  C   C89       1.0  0.74915  0.53017  0.34707  1.0000
  C   C90       1.0  0.72825  0.54591  0.41466  1.0000
  C   C91       1.0  0.68055  0.53824  0.40306  1.0000
  C   C92       1.0  0.65254  0.51482  0.32577  1.0000
  H   H49       1.0  0.66482  0.54642  0.45534  1.0000
  H   H50       1.0  0.77285  0.49210  0.48542  1.0000
  N   N7        1.0  0.75493  0.56805  0.49415  1.0000
  N   N8        1.0  0.84219  0.47136  0.52018  1.0000
  O   O19       1.0  0.73334  0.54437  0.56362  1.0000
  O   O20       1.0  0.80583  0.42946  0.52642  1.0000
  O   O21       1.0  0.76262  0.61062  0.50249  1.0000
  O   O22       1.0  0.84659  0.49373  0.59258  1.0000
  C   C93       1.0  0.50302  0.36485  0.37520  1.0000
  C   C94       1.0  0.51763  0.34446  0.44535  1.0000
  C   C95       1.0  0.50853  0.29618  0.43728  1.0000
  C   C96       1.0  0.48544  0.26719  0.36058  1.0000
  C   C97       1.0  0.48454  0.22193  0.34708  1.0000
  C   C98       1.0  0.46879  0.18528  0.41465  1.0000
  C   C99       1.0  0.47646  0.14525  0.40303  1.0000
  C   C100      1.0  0.49989  0.14067  0.32573  1.0000
  H   H51       1.0  0.46827  0.12133  0.45529  1.0000
  H   H52       1.0  0.52258  0.28367  0.48547  1.0000
  N   N9        1.0  0.44663  0.18979  0.49414  1.0000
  N   N10       1.0  0.54333  0.37377  0.52027  1.0000
  O   O23       1.0  0.47030  0.19188  0.56360  1.0000
  O   O24       1.0  0.58522  0.37929  0.52652  1.0000
  O   O25       1.0  0.40406  0.15491  0.50245  1.0000
  O   O26       1.0  0.52096  0.35579  0.59266  1.0000
  C   C101      1.0  0.64984  0.14112  0.37515  1.0000
  C   C102      1.0  0.67025  0.17615  0.44527  1.0000
  C   C103      1.0  0.71854  0.21534  0.43724  1.0000
  C   C104      1.0  0.74754  0.22122  0.36057  1.0000
  C   C105      1.0  0.79281  0.26557  0.34707  1.0000
  C   C106      1.0  0.82945  0.28648  0.41465  1.0000
  C   C107      1.0  0.86948  0.33417  0.40303  1.0000
  C   C108      1.0  0.87407  0.36217  0.32571  1.0000
  H   H53       1.0  0.89338  0.34991  0.45531  1.0000
  H   H54       1.0  0.73104  0.24189  0.48541  1.0000
  N   N11       1.0  0.82491  0.25982  0.49418  1.0000
  N   N12       1.0  0.64095  0.17257  0.52019  1.0000
  O   O27       1.0  0.82281  0.28141  0.56362  1.0000
  O   O28       1.0  0.63543  0.20894  0.52641  1.0000
  O   O29       1.0  0.85979  0.25212  0.50254  1.0000
  O   O30       1.0  0.65892  0.16818  0.59260  1.0000
