data_image0
_chemical_formula_structural       C2NC2OH3C2NC2OH3C2NC2OH3NCHNCHNCHNCHNCHNCHNC18H12NC18H12NC18H12NC18H12NC18H12NC18H12NCHNCHNCHC2NC2OH3C2NC2OH3C2NC2OH3C2NC2OH3C2NC2OH3C2NC2OH3
_chemical_formula_sum              "C153 N24 O9 H108"
_cell_length_a       52.2753
_cell_length_b       52.2753
_cell_length_c       14.8568
_cell_angle_alpha    90
_cell_angle_beta     90
_cell_angle_gamma    120

_space_group_name_H-M_alt    "P 1"
_space_group_IT_number       1

loop_
  _space_group_symop_operation_xyz
  'x, y, z'

loop_
  _atom_site_type_symbol
  _atom_site_label
  _atom_site_symmetry_multiplicity
  _atom_site_fract_x
  _atom_site_fract_y
  _atom_site_fract_z
  _atom_site_occupancy
  C   C1        1.0  0.97726  0.49113  0.34132  1.0000
  C   C2        1.0  0.03974  0.52251  0.35240  1.0000
  N   N1        1.0  0.02486  0.50821  0.27648  1.0000
  C   C3        1.0  0.99494  0.49274  0.26624  1.0000
  C   C4        1.0  0.98345  0.47730  0.17902  1.0000
  O   O1        1.0  0.96321  0.44635  0.18995  1.0000
  H   H1        1.0  0.00154  0.48018  0.13513  1.0000
  H   H2        1.0  0.97212  0.48704  0.14385  1.0000
  H   H3        1.0  0.97412  0.43715  0.21506  1.0000
  C   C5        1.0  0.52105  0.48681  0.34497  1.0000
  C   C6        1.0  0.49207  0.52045  0.35504  1.0000
  N   N2        1.0  0.48966  0.50321  0.28307  1.0000
  C   C7        1.0  0.50286  0.48654  0.27336  1.0000
  C   C8        1.0  0.49527  0.46830  0.19052  1.0000
  O   O2        1.0  0.51151  0.48550  0.11420  1.0000
  H   H4        1.0  0.47154  0.45785  0.17746  1.0000
  H   H5        1.0  0.50007  0.45039  0.19840  1.0000
  H   H6        1.0  0.50478  0.49959  0.09989  1.0000
  C   C9        1.0  0.52477  0.03669  0.32836  1.0000
  C   C10       1.0  0.49376  0.97428  0.34294  1.0000
  N   N3        1.0  0.49382  0.98869  0.26651  1.0000
  C   C11       1.0  0.50819  0.01855  0.25464  1.0000
  C   C12       1.0  0.50358  0.02952  0.16735  1.0000
  O   O3        1.0  0.49284  0.04972  0.17832  1.0000
  H   H7        1.0  0.48813  0.01117  0.12470  1.0000
  H   H8        1.0  0.52441  0.04072  0.13084  1.0000
  H   H9        1.0  0.47290  0.03889  0.20471  1.0000
  N   N4        1.0  0.27466  0.56961  0.28884  1.0000
  C   C13       1.0  0.30111  0.57112  0.27776  1.0000
  H   H10       1.0  0.31502  0.58494  0.22945  1.0000
  N   N5        1.0  0.44398  0.70788  0.28759  1.0000
  C   C14       1.0  0.44256  0.73286  0.27629  1.0000
  H   H11       1.0  0.42892  0.73303  0.22750  1.0000
  N   N6        1.0  0.30614  0.73899  0.28816  1.0000
  C   C15       1.0  0.28122  0.71252  0.27729  1.0000
  H   H12       1.0  0.28109  0.69860  0.22893  1.0000
  N   N7        1.0  0.73974  0.43991  0.30338  1.0000
  C   C16       1.0  0.71316  0.43809  0.29278  1.0000
  H   H13       1.0  0.69908  0.42399  0.24525  1.0000
  N   N8        1.0  0.57220  0.30235  0.28112  1.0000
  C   C17       1.0  0.57395  0.27757  0.26892  1.0000
  H   H14       1.0  0.58825  0.27786  0.22158  1.0000
  N   N9        1.0  0.71130  0.27479  0.28636  1.0000
  C   C18       1.0  0.73628  0.30133  0.27747  1.0000
  H   H15       1.0  0.73675  0.31571  0.23012  1.0000
  N   N10       1.0  0.16626  0.58476  0.35139  1.0000
  C   C19       1.0  0.18315  0.61594  0.34216  1.0000
  C   C20       1.0  0.13495  0.56934  0.35180  1.0000
  C   C21       1.0  0.18276  0.56997  0.35814  1.0000
  C   C22       1.0  0.19899  0.57285  0.43717  1.0000
  C   C23       1.0  0.22173  0.56587  0.43698  1.0000
  C   C24       1.0  0.22861  0.55538  0.35805  1.0000
  C   C25       1.0  0.21160  0.55159  0.27980  1.0000
  C   C26       1.0  0.18890  0.55867  0.27993  1.0000
  C   C27       1.0  0.19140  0.63398  0.41948  1.0000
  C   C28       1.0  0.21472  0.66346  0.41605  1.0000
  C   C29       1.0  0.23084  0.67578  0.33553  1.0000
  C   C30       1.0  0.22103  0.65798  0.25701  1.0000
  C   C31       1.0  0.19773  0.62852  0.26033  1.0000
  C   C32       1.0  0.11916  0.55789  0.43264  1.0000
  C   C33       1.0  0.08801  0.54273  0.43333  1.0000
  C   C34       1.0  0.07148  0.53819  0.35319  1.0000
  C   C35       1.0  0.08774  0.54954  0.27226  1.0000
  C   C36       1.0  0.11889  0.56503  0.27158  1.0000
  H   H16       1.0  0.22126  0.67503  0.47514  1.0000
  H   H17       1.0  0.18205  0.62503  0.48030  1.0000
  H   H18       1.0  0.19278  0.61566  0.20399  1.0000
  H   H19       1.0  0.23150  0.66579  0.19676  1.0000
  H   H20       1.0  0.19613  0.58258  0.49301  1.0000
  H   H21       1.0  0.23487  0.57104  0.49274  1.0000
  H   H22       1.0  0.13035  0.56064  0.49159  1.0000
  H   H23       1.0  0.07758  0.53440  0.49333  1.0000
  H   H24       1.0  0.07703  0.54707  0.21249  1.0000
  H   H25       1.0  0.12986  0.57303  0.21207  1.0000
  H   H26       1.0  0.17847  0.55780  0.22081  1.0000
  H   H27       1.0  0.21664  0.54508  0.22063  1.0000
  N   N11       1.0  0.42892  0.58421  0.35069  1.0000
  C   C37       1.0  0.39771  0.56972  0.34181  1.0000
  C   C38       1.0  0.44458  0.56854  0.35201  1.0000
  C   C39       1.0  0.44346  0.61549  0.35747  1.0000
  C   C40       1.0  0.44024  0.62871  0.43630  1.0000
  C   C41       1.0  0.44717  0.65841  0.43624  1.0000
  C   C42       1.0  0.45786  0.67588  0.35757  1.0000
  C   C43       1.0  0.46189  0.66276  0.27947  1.0000
  C   C44       1.0  0.45495  0.63302  0.27953  1.0000
  C   C45       1.0  0.37971  0.55982  0.41919  1.0000
  C   C46       1.0  0.35022  0.55363  0.41598  1.0000
  C   C47       1.0  0.33782  0.55741  0.33558  1.0000
  C   C48       1.0  0.35557  0.56543  0.25695  1.0000
  C   C49       1.0  0.38505  0.57167  0.26008  1.0000
  C   C50       1.0  0.45791  0.56632  0.43181  1.0000
  C   C51       1.0  0.47342  0.55068  0.43330  1.0000
  C   C52       1.0  0.47644  0.53673  0.35512  1.0000
  C   C53       1.0  0.46279  0.53924  0.27542  1.0000
  C   C54       1.0  0.44717  0.55477  0.27375  1.0000
  H   H28       1.0  0.33864  0.54849  0.47508  1.0000
  H   H29       1.0  0.38871  0.55943  0.47993  1.0000
  H   H30       1.0  0.39789  0.57966  0.20371  1.0000
  H   H31       1.0  0.34770  0.56806  0.19677  1.0000
  H   H32       1.0  0.43052  0.61609  0.49208  1.0000
  H   H33       1.0  0.44182  0.66628  0.49185  1.0000
  H   H34       1.0  0.45611  0.57590  0.48969  1.0000
  H   H35       1.0  0.48206  0.54937  0.49351  1.0000
  H   H36       1.0  0.46413  0.52984  0.21657  1.0000
  H   H37       1.0  0.43777  0.55612  0.21490  1.0000
  H   H38       1.0  0.45601  0.62355  0.22046  1.0000
  H   H39       1.0  0.46856  0.67438  0.22044  1.0000
  N   N12       1.0  0.42962  0.84777  0.35038  1.0000
  C   C55       1.0  0.44397  0.83093  0.34103  1.0000
  C   C56       1.0  0.44539  0.87909  0.34838  1.0000
  C   C57       1.0  0.39832  0.83117  0.35683  1.0000
  C   C58       1.0  0.38506  0.81500  0.43602  1.0000
  C   C59       1.0  0.35538  0.79215  0.43599  1.0000
  C   C60       1.0  0.33798  0.78511  0.35712  1.0000
  C   C61       1.0  0.35112  0.80205  0.27869  1.0000
  C   C62       1.0  0.38086  0.82487  0.27861  1.0000
  C   C63       1.0  0.45371  0.82270  0.41849  1.0000
  C   C64       1.0  0.45976  0.79931  0.41526  1.0000
  C   C65       1.0  0.45600  0.78317  0.33480  1.0000
  C   C66       1.0  0.44810  0.79300  0.25614  1.0000
  C   C67       1.0  0.44198  0.81633  0.25925  1.0000
  C   C68       1.0  0.44994  0.89544  0.42812  1.0000
  C   C69       1.0  0.46592  0.92658  0.42682  1.0000
  C   C70       1.0  0.47768  0.94255  0.34567  1.0000
  C   C71       1.0  0.47254  0.92575  0.26582  1.0000
  C   C72       1.0  0.45691  0.89460  0.26715  1.0000
  H   H40       1.0  0.46482  0.79282  0.47441  1.0000
  H   H41       1.0  0.45410  0.83208  0.47926  1.0000
  H   H42       1.0  0.43408  0.82127  0.20286  1.0000
  H   H43       1.0  0.44547  0.78253  0.19592  1.0000
  H   H44       1.0  0.39765  0.81809  0.49204  1.0000
  H   H45       1.0  0.34745  0.77916  0.49204  1.0000
  H   H46       1.0  0.44170  0.88466  0.48778  1.0000
  H   H47       1.0  0.46821  0.93744  0.48610  1.0000
  H   H48       1.0  0.48063  0.93606  0.20542  1.0000
  H   H49       1.0  0.45381  0.88322  0.20840  1.0000
  H   H50       1.0  0.39038  0.83520  0.21935  1.0000
  H   H51       1.0  0.33957  0.79689  0.21951  1.0000
  N   N13       1.0  0.85086  0.42842  0.35688  1.0000
  C   C73       1.0  0.83407  0.39717  0.34777  1.0000
  C   C74       1.0  0.88227  0.44414  0.35234  1.0000
  C   C75       1.0  0.83383  0.44272  0.36349  1.0000
  C   C76       1.0  0.81950  0.44151  0.44527  1.0000
  C   C77       1.0  0.79607  0.44750  0.44760  1.0000
  C   C78       1.0  0.78661  0.45545  0.36852  1.0000
  C   C79       1.0  0.80171  0.45756  0.28728  1.0000
  C   C80       1.0  0.82483  0.45115  0.28468  1.0000
  C   C81       1.0  0.82417  0.37937  0.42566  1.0000
  C   C82       1.0  0.80090  0.34991  0.42100  1.0000
  C   C83       1.0  0.78627  0.33744  0.33861  1.0000
  C   C84       1.0  0.79746  0.35500  0.26000  1.0000
  C   C85       1.0  0.82093  0.38438  0.26448  1.0000
  C   C86       1.0  0.89921  0.44081  0.42051  1.0000
  C   C87       1.0  0.93034  0.45621  0.41646  1.0000
  C   C88       1.0  0.94567  0.47548  0.34402  1.0000
  C   C89       1.0  0.92856  0.47938  0.27737  1.0000
  C   C90       1.0  0.89744  0.46371  0.28078  1.0000
  H   H52       1.0  0.79321  0.33851  0.48006  1.0000
  H   H53       1.0  0.83232  0.38846  0.48736  1.0000
  H   H54       1.0  0.82695  0.39709  0.20761  1.0000
  H   H55       1.0  0.78791  0.34700  0.19869  1.0000
  H   H56       1.0  0.82436  0.43377  0.50214  1.0000
  H   H57       1.0  0.78442  0.44349  0.50616  1.0000
  H   H58       1.0  0.88891  0.42702  0.47364  1.0000
  H   H59       1.0  0.94176  0.45289  0.46669  1.0000
  H   H60       1.0  0.93858  0.49426  0.22650  1.0000
  H   H61       1.0  0.88594  0.46696  0.23090  1.0000
  H   H62       1.0  0.83339  0.45034  0.22363  1.0000
  H   H63       1.0  0.79481  0.46208  0.22794  1.0000
  N   N14       1.0  0.58554  0.42507  0.35716  1.0000
  C   C91       1.0  0.61685  0.43974  0.35141  1.0000
  C   C92       1.0  0.56963  0.44050  0.35335  1.0000
  C   C93       1.0  0.57118  0.39370  0.35862  1.0000
  C   C94       1.0  0.57305  0.37928  0.43656  1.0000
  C   C95       1.0  0.56643  0.34969  0.43298  1.0000
  C   C96       1.0  0.55722  0.33347  0.35169  1.0000
  C   C97       1.0  0.55450  0.34776  0.27434  1.0000
  C   C98       1.0  0.56123  0.37744  0.27781  1.0000
  C   C99       1.0  0.63042  0.43924  0.26986  1.0000
  C   C100      1.0  0.65990  0.44547  0.26864  1.0000
  C   C101      1.0  0.67671  0.45214  0.34893  1.0000
  C   C102      1.0  0.66348  0.45455  0.42941  1.0000
  C   C103      1.0  0.63394  0.44827  0.43077  1.0000
  C   C104      1.0  0.57084  0.45699  0.27662  1.0000
  C   C105      1.0  0.55508  0.47237  0.27381  1.0000
  C   C106      1.0  0.53711  0.47126  0.34679  1.0000
  C   C107      1.0  0.53652  0.45515  0.42422  1.0000
  C   C108      1.0  0.55242  0.43992  0.42733  1.0000
  H   H64       1.0  0.66846  0.44378  0.20854  1.0000
  H   H65       1.0  0.61821  0.43211  0.21206  1.0000
  H   H66       1.0  0.62421  0.44752  0.49117  1.0000
  H   H67       1.0  0.67442  0.45863  0.48947  1.0000
  H   H68       1.0  0.58163  0.39099  0.49462  1.0000
  H   H69       1.0  0.57076  0.34098  0.48862  1.0000
  H   H70       1.0  0.58341  0.45806  0.22251  1.0000
  H   H71       1.0  0.55709  0.48465  0.21791  1.0000
  H   H72       1.0  0.52403  0.45394  0.47885  1.0000
  H   H73       1.0  0.55135  0.42831  0.48395  1.0000
  H   H74       1.0  0.56112  0.38781  0.21958  1.0000
  H   H75       1.0  0.54894  0.33709  0.21361  1.0000
  N   N15       1.0  0.58793  0.16322  0.33664  1.0000
  C   C109      1.0  0.57321  0.17981  0.32934  1.0000
  C   C110      1.0  0.57245  0.13177  0.33450  1.0000
  C   C111      1.0  0.61924  0.18044  0.34406  1.0000
  C   C112      1.0  0.63213  0.19480  0.42599  1.0000
  C   C113      1.0  0.66151  0.21830  0.42883  1.0000
  C   C114      1.0  0.67915  0.22778  0.35021  1.0000
  C   C115      1.0  0.66635  0.21274  0.26874  1.0000
  C   C116      1.0  0.63686  0.18949  0.26564  1.0000
  C   C117      1.0  0.56454  0.18861  0.40801  1.0000
  C   C118      1.0  0.55790  0.21160  0.40544  1.0000
  C   C119      1.0  0.56030  0.22700  0.32447  1.0000
  C   C120      1.0  0.56749  0.21693  0.24498  1.0000
  C   C121      1.0  0.57387  0.19376  0.24737  1.0000
  C   C122      1.0  0.55275  0.11512  0.40421  1.0000
  C   C123      1.0  0.53715  0.08397  0.40175  1.0000
  C   C124      1.0  0.54065  0.06831  0.32944  1.0000
  C   C125      1.0  0.56114  0.08514  0.26125  1.0000
  C   C126      1.0  0.57645  0.11628  0.26310  1.0000
  H   H76       1.0  0.55369  0.21855  0.46514  1.0000
  H   H77       1.0  0.56538  0.18002  0.46901  1.0000
  H   H78       1.0  0.58110  0.18854  0.19006  1.0000
  H   H79       1.0  0.56930  0.22712  0.18467  1.0000
  H   H80       1.0  0.61937  0.18991  0.48253  1.0000
  H   H81       1.0  0.66899  0.22992  0.48749  1.0000
  H   H82       1.0  0.54956  0.12562  0.45734  1.0000
  H   H83       1.0  0.52280  0.07277  0.45308  1.0000
  H   H84       1.0  0.56568  0.07491  0.21029  1.0000
  H   H85       1.0  0.59081  0.12760  0.21214  1.0000
  H   H86       1.0  0.62763  0.18084  0.20449  1.0000
  H   H87       1.0  0.67796  0.21959  0.20973  1.0000
  N   N16       1.0  0.99195  0.50508  0.41791  1.0000
  C   C127      1.0  0.02181  0.52036  0.42654  1.0000
  H   H88       1.0  0.03067  0.53060  0.48630  1.0000
  N   N17       1.0  0.52360  0.50382  0.41756  1.0000
  C   C128      1.0  0.51018  0.52024  0.42556  1.0000
  H   H89       1.0  0.51407  0.53248  0.48255  1.0000
  N   N18       1.0  0.52454  0.02245  0.40544  1.0000
  C   C129      1.0  0.51002  0.99265  0.41573  1.0000
  H   H90       1.0  0.51180  0.98415  0.47571  1.0000
  C   C130      1.0  0.25463  0.55319  0.35324  1.0000
  C   C131      1.0  0.30938  0.55524  0.33663  1.0000
  N   N19       1.0  0.28915  0.53886  0.40086  1.0000
  C   C132      1.0  0.26229  0.53673  0.41248  1.0000
  C   C133      1.0  0.24280  0.51677  0.48403  1.0000
  O   O4        1.0  0.21528  0.49510  0.44575  1.0000
  H   H91       1.0  0.23916  0.52959  0.53524  1.0000
  H   H92       1.0  0.25318  0.50553  0.51702  1.0000
  H   H93       1.0  0.20276  0.48250  0.49512  1.0000
  C   C134      1.0  0.46008  0.70411  0.35275  1.0000
  C   C135      1.0  0.45814  0.75687  0.33587  1.0000
  N   N20       1.0  0.47419  0.75285  0.40085  1.0000
  C   C136      1.0  0.47625  0.72810  0.41271  1.0000
  C   C137      1.0  0.49584  0.72842  0.48527  1.0000
  O   O5        1.0  0.51763  0.72252  0.44826  1.0000
  H   H94       1.0  0.48275  0.71194  0.53610  1.0000
  H   H95       1.0  0.50698  0.75001  0.51847  1.0000
  H   H96       1.0  0.52997  0.72251  0.49830  1.0000
  C   C138      1.0  0.30978  0.75904  0.35257  1.0000
  C   C139      1.0  0.25713  0.70422  0.33641  1.0000
  N   N21       1.0  0.26100  0.72447  0.40058  1.0000
  C   C140      1.0  0.28571  0.75136  0.41203  1.0000
  C   C141      1.0  0.28524  0.77084  0.48361  1.0000
  O   O6        1.0  0.29107  0.79836  0.44540  1.0000
  H   H97       1.0  0.30170  0.77448  0.53481  1.0000
  H   H98       1.0  0.26362  0.76045  0.51662  1.0000
  H   H99       1.0  0.29098  0.81086  0.49480  1.0000
  C   C142      1.0  0.76004  0.45678  0.36665  1.0000
  C   C143      1.0  0.70507  0.45426  0.35090  1.0000
  N   N22       1.0  0.72543  0.47104  0.41427  1.0000
  C   C144      1.0  0.75242  0.47340  0.42543  1.0000
  C   C145      1.0  0.77211  0.49402  0.49543  1.0000
  O   O7        1.0  0.79951  0.51541  0.45582  1.0000
  H   H100      1.0  0.77589  0.48169  0.54794  1.0000
  H   H101      1.0  0.76179  0.50552  0.52719  1.0000
  H   H102      1.0  0.81214  0.52843  0.50432  1.0000
  C   C146      1.0  0.55509  0.30530  0.34462  1.0000
  C   C147      1.0  0.55773  0.25301  0.32596  1.0000
  N   N23       1.0  0.54057  0.25611  0.38904  1.0000
  C   C148      1.0  0.53807  0.28060  0.40138  1.0000
  C   C149      1.0  0.51714  0.27923  0.47100  1.0000
  O   O8        1.0  0.49592  0.28545  0.43110  1.0000
  H   H103      1.0  0.52918  0.29506  0.52446  1.0000
  H   H104      1.0  0.50552  0.25723  0.50152  1.0000
  H   H105      1.0  0.48264  0.28473  0.47922  1.0000
  C   C150      1.0  0.70723  0.25418  0.34935  1.0000
  C   C151      1.0  0.76001  0.30906  0.33748  1.0000
  N   N24       1.0  0.75583  0.28833  0.40023  1.0000
  C   C152      1.0  0.73105  0.26136  0.40950  1.0000
  C   C153      1.0  0.73142  0.24127  0.47917  1.0000
  O   O9        1.0  0.72537  0.21395  0.43884  1.0000
  H   H106      1.0  0.71510  0.23742  0.53104  1.0000
  H   H107      1.0  0.75308  0.25129  0.51192  1.0000
  H   H108      1.0  0.72539  0.20106  0.48711  1.0000
