data_image0
_chemical_formula_structural       H3CH3CH2C5NH3NC5NH3N2C3H3NC3H3C5NH3NC5NH3N2C3H3NC3H3C3NH3C3NH3C6HOC6OH5C4H2C6HOC6OH5C4H4C6HOC6OH5C4H4C6HOC6OH4C3H2C6HOC6OH4C3H2NC5H3N2C5H3NC7NH3N2C7NH3N3C5H3N2C5H3NC7NH3N2C7NH3N2C2NC5H3N2C2NC5H3N2
_chemical_formula_sum              "H110 C180 N40 O10"
_cell_length_a       40.5482
_cell_length_b       51.5886
_cell_length_c       15.0128
_cell_angle_alpha    88.5315
_cell_angle_beta     91.1686
_cell_angle_gamma    89.7519

_space_group_name_H-M_alt    "P 1"
_space_group_IT_number       1

loop_
  _space_group_symop_operation_xyz
  'x, y, z'

loop_
  _atom_site_type_symbol
  _atom_site_label
  _atom_site_symmetry_multiplicity
  _atom_site_fract_x
  _atom_site_fract_y
  _atom_site_fract_z
  _atom_site_occupancy
  H   H1        1.0  0.04396  0.06105  0.23441  1.0000
  H   H2        1.0  0.89726  0.95305  0.23542  1.0000
  H   H3        1.0  0.76973  0.34700  0.33002  1.0000
  C   C1        1.0  0.82890  0.32655  0.32214  1.0000
  H   H4        1.0  0.83077  0.34060  0.27602  1.0000
  H   H5        1.0  0.61722  0.30677  0.26716  1.0000
  H   H6        1.0  0.17247  0.66587  0.33034  1.0000
  C   C2        1.0  0.11321  0.68644  0.32225  1.0000
  H   H7        1.0  0.11054  0.67310  0.27615  1.0000
  H   H8        1.0  0.32469  0.70660  0.26880  1.0000
  C   C3        1.0  0.15951  0.21268  0.30378  1.0000
  C   C4        1.0  0.14235  0.20345  0.22855  1.0000
  C   C5        1.0  0.13227  0.17742  0.22568  1.0000
  C   C6        1.0  0.13869  0.16049  0.29980  1.0000
  C   C7        1.0  0.08910  0.10330  0.24424  1.0000
  N   N1        1.0  0.10515  0.12628  0.24076  1.0000
  H   H9        1.0  0.07395  0.09864  0.19203  1.0000
  H   H10       1.0  0.13589  0.21587  0.17674  1.0000
  H   H11       1.0  0.11890  0.17151  0.17146  1.0000
  N   N2        1.0  0.16366  0.23805  0.30937  1.0000
  C   C8        1.0  0.78259  0.80050  0.30573  1.0000
  C   C9        1.0  0.79837  0.81093  0.23022  1.0000
  C   C10       1.0  0.80848  0.83698  0.22744  1.0000
  C   C11       1.0  0.80349  0.85273  0.30189  1.0000
  C   C12       1.0  0.85225  0.91070  0.24591  1.0000
  N   N3        1.0  0.83609  0.88779  0.24256  1.0000
  H   H12       1.0  0.86645  0.91616  0.19339  1.0000
  H   H13       1.0  0.80375  0.79935  0.17800  1.0000
  H   H14       1.0  0.82079  0.84376  0.17287  1.0000
  N   N4        1.0  0.77842  0.77506  0.31098  1.0000
  N   N5        1.0  0.79116  0.16451  0.33359  1.0000
  C   C13       1.0  0.78283  0.18990  0.32612  1.0000
  C   C14       1.0  0.81295  0.11203  0.32749  1.0000
  C   C15       1.0  0.82826  0.08759  0.32535  1.0000
  H   H15       1.0  0.80203  0.11943  0.27024  1.0000
  H   H16       1.0  0.82817  0.07787  0.26666  1.0000
  H   H17       1.0  0.77453  0.19706  0.26568  1.0000
  N   N6        1.0  0.15161  0.84841  0.33318  1.0000
  C   C16       1.0  0.15974  0.82312  0.32540  1.0000
  C   C17       1.0  0.13006  0.90104  0.32780  1.0000
  C   C18       1.0  0.11471  0.92552  0.32583  1.0000
  H   H18       1.0  0.14031  0.89460  0.27068  1.0000
  H   H19       1.0  0.11410  0.93622  0.26737  1.0000
  H   H20       1.0  0.16696  0.81690  0.26476  1.0000
  C   C19       1.0  0.23838  0.44215  0.32025  1.0000
  C   C20       1.0  0.24032  0.45799  0.24277  1.0000
  C   C21       1.0  0.23981  0.48516  0.24933  1.0000
  C   C22       1.0  0.23745  0.49649  0.33401  1.0000
  C   C23       1.0  0.24396  0.56627  0.28063  1.0000
  N   N7        1.0  0.24047  0.54025  0.27515  1.0000
  H   H21       1.0  0.24444  0.57730  0.22310  1.0000
  H   H22       1.0  0.24355  0.44988  0.18203  1.0000
  H   H23       1.0  0.24252  0.49634  0.19271  1.0000
  N   N8        1.0  0.24205  0.41671  0.31749  1.0000
  C   C24       1.0  0.70479  0.57099  0.32169  1.0000
  C   C25       1.0  0.70133  0.55649  0.24387  1.0000
  C   C26       1.0  0.70162  0.52921  0.24981  1.0000
  C   C27       1.0  0.70514  0.51644  0.33423  1.0000
  C   C28       1.0  0.69719  0.44759  0.27951  1.0000
  N   N9        1.0  0.70078  0.47368  0.27449  1.0000
  H   H24       1.0  0.69572  0.43752  0.22176  1.0000
  H   H25       1.0  0.69738  0.56567  0.18332  1.0000
  H   H26       1.0  0.69799  0.51900  0.19293  1.0000
  N   N10       1.0  0.70140  0.59648  0.32037  1.0000
  N   N11       1.0  0.00940  0.34161  0.33750  1.0000
  C   C29       1.0  0.04292  0.34044  0.33799  1.0000
  C   C30       1.0  0.93785  0.34247  0.31847  1.0000
  C   C31       1.0  0.90337  0.33932  0.30990  1.0000
  H   H27       1.0  0.95027  0.35080  0.26658  1.0000
  H   H28       1.0  0.89170  0.34515  0.25173  1.0000
  H   H29       1.0  0.05500  0.34625  0.28192  1.0000
  N   N12       1.0  0.93310  0.67090  0.33969  1.0000
  C   C32       1.0  0.89958  0.67199  0.34032  1.0000
  C   C33       1.0  0.00429  0.67035  0.32027  1.0000
  C   C34       1.0  0.03861  0.67368  0.31127  1.0000
  H   H30       1.0  0.99107  0.66251  0.26892  1.0000
  H   H31       1.0  0.04938  0.66845  0.25335  1.0000
  H   H32       1.0  0.88667  0.66693  0.28433  1.0000
  C   C35       1.0  0.40443  0.32488  0.28149  1.0000
  C   C36       1.0  0.43887  0.32139  0.28055  1.0000
  C   C37       1.0  0.54311  0.31843  0.28818  1.0000
  N   N13       1.0  0.50966  0.31795  0.29028  1.0000
  H   H33       1.0  0.55418  0.32227  0.22882  1.0000
  H   H34       1.0  0.39230  0.33054  0.22367  1.0000
  H   H35       1.0  0.45080  0.32445  0.22185  1.0000
  C   C38       1.0  0.53732  0.68872  0.28274  1.0000
  C   C39       1.0  0.50287  0.69228  0.28195  1.0000
  C   C40       1.0  0.39874  0.69501  0.29053  1.0000
  N   N14       1.0  0.43222  0.69549  0.29225  1.0000
  H   H36       1.0  0.38668  0.69195  0.23135  1.0000
  H   H37       1.0  0.54853  0.68393  0.22485  1.0000
  H   H38       1.0  0.49000  0.69014  0.22330  1.0000
  C   C41       1.0  0.98912  0.00710  0.36483  1.0000
  C   C42       1.0  0.00886  0.98716  0.40406  1.0000
  C   C43       1.0  0.04360  0.98883  0.40516  1.0000
  C   C44       1.0  0.05893  0.01075  0.36547  1.0000
  C   C45       1.0  0.03940  0.03123  0.32719  1.0000
  C   C46       1.0  0.00466  0.02909  0.32701  1.0000
  H   H39       1.0  0.99770  0.97123  0.43230  1.0000
  O   O1        1.0  0.09257  0.01228  0.36677  1.0000
  C   C47       1.0  0.95423  0.00519  0.36488  1.0000
  C   C48       1.0  0.93810  0.98370  0.32754  1.0000
  C   C49       1.0  0.90337  0.98156  0.32786  1.0000
  C   C50       1.0  0.88443  0.00152  0.36578  1.0000
  C   C51       1.0  0.90038  0.02292  0.40503  1.0000
  C   C52       1.0  0.93510  0.02461  0.40378  1.0000
  O   O2        1.0  0.85081  0.99998  0.36720  1.0000
  H   H40       1.0  0.94669  0.04017  0.43171  1.0000
  H   H41       1.0  0.09971  0.00744  0.30720  1.0000
  H   H42       1.0  0.84275  0.00564  0.30756  1.0000
  H   H43       1.0  0.99039  0.04372  0.29887  1.0000
  H   H44       1.0  0.95194  0.96944  0.29966  1.0000
  C   C53       1.0  0.05330  0.05343  0.29096  1.0000
  C   C54       1.0  0.06158  0.96830  0.44152  1.0000
  C   C55       1.0  0.88892  0.95983  0.29213  1.0000
  C   C56       1.0  0.88296  0.04295  0.44112  1.0000
  H   H45       1.0  0.88953  0.04916  0.50098  1.0000
  H   H46       1.0  0.05582  0.96110  0.50117  1.0000
  C   C57       1.0  0.20924  0.32047  0.36954  1.0000
  C   C58       1.0  0.20938  0.29323  0.35902  1.0000
  C   C59       1.0  0.18032  0.27830  0.35901  1.0000
  C   C60       1.0  0.14941  0.29091  0.36679  1.0000
  C   C61       1.0  0.14768  0.31824  0.37400  1.0000
  C   C62       1.0  0.17761  0.33231  0.37731  1.0000
  H   H47       1.0  0.23113  0.28371  0.34934  1.0000
  O   O3        1.0  0.12107  0.27668  0.36385  1.0000
  C   C63       1.0  0.23990  0.33504  0.37070  1.0000
  C   C64       1.0  0.27099  0.32350  0.39396  1.0000
  C   C65       1.0  0.30093  0.33745  0.39211  1.0000
  C   C66       1.0  0.29969  0.36458  0.37484  1.0000
  C   C67       1.0  0.26929  0.37716  0.35348  1.0000
  C   C68       1.0  0.24036  0.36194  0.34862  1.0000
  O   O4        1.0  0.32812  0.37874  0.37820  1.0000
  H   H48       1.0  0.21890  0.37106  0.32946  1.0000
  H   H49       1.0  0.11770  0.26995  0.42487  1.0000
  H   H50       1.0  0.33253  0.38220  0.44147  1.0000
  H   H51       1.0  0.17588  0.35180  0.38685  1.0000
  H   H52       1.0  0.27227  0.30438  0.41331  1.0000
  C   C69       1.0  0.11748  0.33142  0.37081  1.0000
  C   C70       1.0  0.18307  0.25156  0.35812  1.0000
  C   C71       1.0  0.33081  0.32500  0.41146  1.0000
  C   C72       1.0  0.26764  0.40414  0.34730  1.0000
  H   H53       1.0  0.28610  0.41421  0.37424  1.0000
  H   H54       1.0  0.11514  0.34716  0.33156  1.0000
  H   H55       1.0  0.19916  0.24287  0.40009  1.0000
  H   H56       1.0  0.33338  0.31429  0.46715  1.0000
  C   C73       1.0  0.73385  0.69170  0.37038  1.0000
  C   C74       1.0  0.73364  0.71912  0.36053  1.0000
  C   C75       1.0  0.76280  0.73394  0.36013  1.0000
  C   C76       1.0  0.79376  0.72109  0.36550  1.0000
  C   C77       1.0  0.79547  0.69367  0.37476  1.0000
  C   C78       1.0  0.76553  0.67964  0.37834  1.0000
  H   H57       1.0  0.71176  0.72886  0.35188  1.0000
  O   O5        1.0  0.82202  0.73543  0.36427  1.0000
  C   C79       1.0  0.70320  0.67715  0.37106  1.0000
  C   C80       1.0  0.67253  0.68823  0.39527  1.0000
  C   C81       1.0  0.64256  0.67432  0.39266  1.0000
  C   C82       1.0  0.64351  0.64757  0.37356  1.0000
  C   C83       1.0  0.67352  0.63541  0.35088  1.0000
  C   C84       1.0  0.70236  0.65076  0.34682  1.0000
  O   O6        1.0  0.61509  0.63339  0.37652  1.0000
  H   H58       1.0  0.72349  0.64217  0.32624  1.0000
  H   H59       1.0  0.82951  0.73563  0.30235  1.0000
  H   H60       1.0  0.61197  0.62844  0.43950  1.0000
  H   H61       1.0  0.76725  0.66002  0.38840  1.0000
  H   H62       1.0  0.67160  0.70695  0.41572  1.0000
  C   C85       1.0  0.82557  0.68044  0.37282  1.0000
  C   C86       1.0  0.76020  0.76070  0.36061  1.0000
  C   C87       1.0  0.61297  0.68641  0.41265  1.0000
  C   C88       1.0  0.67495  0.60857  0.34148  1.0000
  H   H63       1.0  0.65563  0.59802  0.36025  1.0000
  H   H64       1.0  0.82739  0.66518  0.33409  1.0000
  H   H65       1.0  0.74519  0.76864  0.40390  1.0000
  H   H66       1.0  0.61132  0.69618  0.46854  1.0000
  C   C89       1.0  0.73825  0.31458  0.34884  1.0000
  C   C90       1.0  0.73886  0.28715  0.35486  1.0000
  C   C91       1.0  0.76812  0.27274  0.34541  1.0000
  C   C92       1.0  0.79828  0.28591  0.33256  1.0000
  C   C93       1.0  0.79918  0.31340  0.33118  1.0000
  C   C94       1.0  0.76903  0.32722  0.33621  1.0000
  H   H67       1.0  0.71757  0.27720  0.36722  1.0000
  O   O7        1.0  0.82653  0.27195  0.32101  1.0000
  C   C95       1.0  0.70749  0.32853  0.35681  1.0000
  C   C96       1.0  0.67661  0.31805  0.32927  1.0000
  C   C97       1.0  0.64628  0.33130  0.33953  1.0000
  C   C98       1.0  0.64698  0.35678  0.37263  1.0000
  C   C99       1.0  0.67729  0.36786  0.39952  1.0000
  C   C100      1.0  0.70683  0.35354  0.39336  1.0000
  O   O8        1.0  0.61851  0.37089  0.37824  1.0000
  H   H68       1.0  0.72829  0.36180  0.41554  1.0000
  H   H69       1.0  0.82869  0.27013  0.25633  1.0000
  H   H70       1.0  0.61479  0.37933  0.31938  1.0000
  H   H71       1.0  0.67598  0.30037  0.30000  1.0000
  C   C101      1.0  0.76613  0.24609  0.34305  1.0000
  C   C102      1.0  0.61644  0.32038  0.31280  1.0000
  C   C103      1.0  0.67893  0.39346  0.42219  1.0000
  H   H72       1.0  0.66939  0.39920  0.47888  1.0000
  H   H73       1.0  0.75006  0.23825  0.30077  1.0000
  C   C104      1.0  0.20428  0.69802  0.34853  1.0000
  C   C105      1.0  0.20377  0.72538  0.35390  1.0000
  C   C106      1.0  0.17437  0.73993  0.34400  1.0000
  C   C107      1.0  0.14400  0.72694  0.33152  1.0000
  C   C108      1.0  0.14307  0.69947  0.33077  1.0000
  C   C109      1.0  0.17329  0.68557  0.33609  1.0000
  H   H74       1.0  0.22523  0.73517  0.36618  1.0000
  O   O9        1.0  0.11558  0.74108  0.31983  1.0000
  C   C110      1.0  0.23515  0.68394  0.35721  1.0000
  C   C111      1.0  0.26570  0.69481  0.33034  1.0000
  C   C112      1.0  0.29616  0.68142  0.34174  1.0000
  C   C113      1.0  0.29588  0.65549  0.37524  1.0000
  C   C114      1.0  0.26587  0.64400  0.40124  1.0000
  C   C115      1.0  0.23625  0.65842  0.39407  1.0000
  O   O10       1.0  0.32445  0.64134  0.38197  1.0000
  H   H75       1.0  0.21506  0.64983  0.41579  1.0000
  H   H76       1.0  0.11239  0.74373  0.25511  1.0000
  H   H77       1.0  0.32759  0.63375  0.32329  1.0000
  H   H78       1.0  0.26602  0.71291  0.30097  1.0000
  C   C116      1.0  0.17633  0.76660  0.34133  1.0000
  C   C117      1.0  0.32568  0.69282  0.31647  1.0000
  C   C118      1.0  0.26449  0.61806  0.42393  1.0000
  H   H79       1.0  0.27538  0.61138  0.47984  1.0000
  H   H80       1.0  0.19163  0.77505  0.29865  1.0000
  N   N15       1.0  0.15551  0.17025  0.37072  1.0000
  C   C119      1.0  0.16639  0.19496  0.37507  1.0000
  C   C120      1.0  0.12552  0.13501  0.30664  1.0000
  C   C121      1.0  0.13030  0.11881  0.38343  1.0000
  C   C122      1.0  0.11369  0.09502  0.39022  1.0000
  C   C123      1.0  0.09236  0.08704  0.32105  1.0000
  H   H81       1.0  0.14483  0.12440  0.43598  1.0000
  H   H82       1.0  0.11657  0.08389  0.44739  1.0000
  H   H83       1.0  0.17735  0.20073  0.43306  1.0000
  N   N16       1.0  0.07589  0.06526  0.33489  1.0000
  N   N17       1.0  0.78795  0.84185  0.37308  1.0000
  C   C124      1.0  0.77703  0.81710  0.37734  1.0000
  C   C125      1.0  0.81688  0.87807  0.30875  1.0000
  C   C126      1.0  0.81349  0.89308  0.38573  1.0000
  C   C127      1.0  0.83026  0.91675  0.39234  1.0000
  C   C128      1.0  0.85037  0.92578  0.32284  1.0000
  H   H84       1.0  0.79982  0.88671  0.43842  1.0000
  H   H85       1.0  0.82835  0.92702  0.44953  1.0000
  H   H86       1.0  0.76720  0.81042  0.43558  1.0000
  N   N18       1.0  0.86706  0.94737  0.33639  1.0000
  C   C129      1.0  0.78827  0.20623  0.39902  1.0000
  C   C130      1.0  0.80156  0.19504  0.47852  1.0000
  C   C131      1.0  0.80911  0.16841  0.48422  1.0000
  C   C132      1.0  0.80404  0.15282  0.40890  1.0000
  C   C133      1.0  0.81492  0.12662  0.40603  1.0000
  C   C134      1.0  0.84528  0.07731  0.40108  1.0000
  C   C135      1.0  0.84527  0.09187  0.47950  1.0000
  N   N19       1.0  0.83088  0.11562  0.47828  1.0000
  H   H87       1.0  0.85750  0.08564  0.53618  1.0000
  H   H88       1.0  0.80666  0.20634  0.53213  1.0000
  H   H89       1.0  0.81959  0.16097  0.54198  1.0000
  N   N20       1.0  0.78496  0.23177  0.39355  1.0000
  N   N21       1.0  0.86263  0.05588  0.39050  1.0000
  C   C136      1.0  0.15536  0.80564  0.39812  1.0000
  C   C137      1.0  0.14342  0.81560  0.47785  1.0000
  C   C138      1.0  0.13608  0.84216  0.48389  1.0000
  C   C139      1.0  0.14001  0.85893  0.40871  1.0000
  C   C140      1.0  0.12912  0.88518  0.40610  1.0000
  C   C141      1.0  0.09868  0.93454  0.40147  1.0000
  C   C142      1.0  0.09974  0.91873  0.47968  1.0000
  N   N22       1.0  0.11413  0.89500  0.47831  1.0000
  H   H90       1.0  0.08829  0.92404  0.53632  1.0000
  H   H91       1.0  0.13920  0.80347  0.53142  1.0000
  H   H92       1.0  0.12663  0.84872  0.54186  1.0000
  N   N23       1.0  0.15851  0.78019  0.39242  1.0000
  N   N24       1.0  0.08119  0.95615  0.39100  1.0000
  N   N25       1.0  0.23469  0.48026  0.40637  1.0000
  C   C143      1.0  0.23450  0.45410  0.40277  1.0000
  C   C144      1.0  0.23972  0.52363  0.34701  1.0000
  C   C145      1.0  0.24269  0.53436  0.43274  1.0000
  C   C146      1.0  0.24685  0.56121  0.44119  1.0000
  C   C147      1.0  0.24793  0.57757  0.36452  1.0000
  H   H93       1.0  0.24254  0.52290  0.48936  1.0000
  H   H94       1.0  0.24909  0.56867  0.50347  1.0000
  H   H95       1.0  0.23320  0.44336  0.46076  1.0000
  N   N26       1.0  0.25179  0.60296  0.36608  1.0000
  N   N27       1.0  0.70912  0.53143  0.40695  1.0000
  C   C148      1.0  0.70962  0.55764  0.40396  1.0000
  C   C149      1.0  0.70282  0.48910  0.34666  1.0000
  C   C150      1.0  0.70118  0.47695  0.43219  1.0000
  C   C151      1.0  0.69701  0.44998  0.44014  1.0000
  C   C152      1.0  0.69456  0.43490  0.36319  1.0000
  H   H96       1.0  0.70239  0.48745  0.48902  1.0000
  H   H97       1.0  0.69578  0.44149  0.50229  1.0000
  H   H98       1.0  0.71180  0.56739  0.46219  1.0000
  N   N28       1.0  0.69058  0.40950  0.36429  1.0000
  C   C153      1.0  0.06026  0.32903  0.41170  1.0000
  C   C154      1.0  0.04150  0.31993  0.48395  1.0000
  C   C155      1.0  0.00687  0.32217  0.48193  1.0000
  C   C156      1.0  0.99023  0.33300  0.40571  1.0000
  C   C157      1.0  0.95501  0.33290  0.39581  1.0000
  C   C158      1.0  0.88545  0.32688  0.37841  1.0000
  C   C159      1.0  0.90335  0.31812  0.45484  1.0000
  N   N29       1.0  0.93653  0.32121  0.46003  1.0000
  H   H99       1.0  0.89191  0.30837  0.50562  1.0000
  H   H100      1.0  0.05287  0.31069  0.53746  1.0000
  H   H101      1.0  0.99409  0.31469  0.53463  1.0000
  N   N30       1.0  0.09202  0.32239  0.41068  1.0000
  N   N31       1.0  0.85395  0.31993  0.37173  1.0000
  C   C160      1.0  0.88336  0.68248  0.41374  1.0000
  C   C161      1.0  0.90325  0.69068  0.48568  1.0000
  C   C162      1.0  0.93785  0.68852  0.48360  1.0000
  C   C163      1.0  0.95332  0.67867  0.40759  1.0000
  C   C164      1.0  0.98837  0.67898  0.39740  1.0000
  C   C165      1.0  0.05759  0.68539  0.37910  1.0000
  C   C166      1.0  0.04092  0.69321  0.45540  1.0000
  N   N32       1.0  0.00784  0.68997  0.46102  1.0000
  H   H102      1.0  0.05316  0.70236  0.50577  1.0000
  H   H103      1.0  0.89269  0.69920  0.53905  1.0000
  H   H104      1.0  0.95145  0.69530  0.53613  1.0000
  N   N33       1.0  0.85158  0.68910  0.41239  1.0000
  N   N34       1.0  0.08899  0.69239  0.37204  1.0000
  C   C167      1.0  0.38695  0.32173  0.36121  1.0000
  C   C168      1.0  0.45656  0.31519  0.36067  1.0000
  N   N35       1.0  0.43860  0.31226  0.43611  1.0000
  C   C169      1.0  0.40528  0.31490  0.43936  1.0000
  C   C170      1.0  0.49180  0.31375  0.36525  1.0000
  C   C171      1.0  0.50980  0.30961  0.44624  1.0000
  C   C172      1.0  0.54454  0.31031  0.44709  1.0000
  C   C173      1.0  0.56193  0.31484  0.36783  1.0000
  H   H105      1.0  0.49801  0.30679  0.50526  1.0000
  H   H106      1.0  0.55709  0.30799  0.50667  1.0000
  H   H107      1.0  0.39419  0.31331  0.49971  1.0000
  N   N36       1.0  0.35535  0.32870  0.35975  1.0000
  N   N37       1.0  0.59460  0.31715  0.37392  1.0000
  C   C174      1.0  0.55608  0.69067  0.36235  1.0000
  C   C175      1.0  0.48648  0.69734  0.36213  1.0000
  N   N38       1.0  0.50565  0.69914  0.43745  1.0000
  C   C176      1.0  0.53901  0.69643  0.44054  1.0000
  C   C177      1.0  0.45132  0.69871  0.36698  1.0000
  C   C178      1.0  0.43466  0.70176  0.44809  1.0000
  C   C179      1.0  0.39995  0.70100  0.44931  1.0000
  C   C180      1.0  0.38125  0.69750  0.37032  1.0000
  H   H108      1.0  0.44742  0.70383  0.50692  1.0000
  H   H109      1.0  0.38838  0.70253  0.50898  1.0000
  H   H110      1.0  0.55104  0.69709  0.50086  1.0000
  N   N39       1.0  0.58764  0.68369  0.36081  1.0000
  N   N40       1.0  0.34870  0.69503  0.37688  1.0000
