data_image0
_chemical_formula_structural       CNC2NC2OHNCHC3OHCNC6H3C6H3NCHNCHC2NC2OHNCHC2OHC2NC2OHC3NC2OHC2NC2OHC2NC2OHNCHNCHNCHNCHNCHCNC2NC2OHC2NC2OHC3OHC2NC2OHC2NC2OHC6H3C6H3C6H3C6H3C6H3C6H3C6H3C6H3C6H3C6H3NCHNCHNCHNCHC2NC2OHC2NC2OHC2NC2OHC2NC2OHC2NC2OHCHNCHNCHN2CHNCH
_chemical_formula_sum              "C162 N36 O18 H72"
_cell_length_a       39.4273
_cell_length_b       39.4274
_cell_length_c       14.806
_cell_angle_alpha    90
_cell_angle_beta     90
_cell_angle_gamma    120

_space_group_name_H-M_alt    "P 1"
_space_group_IT_number       1

loop_
  _space_group_symop_operation_xyz
  'x, y, z'

loop_
  _atom_site_type_symbol
  _atom_site_label
  _atom_site_symmetry_multiplicity
  _atom_site_fract_x
  _atom_site_fract_y
  _atom_site_fract_z
  _atom_site_occupancy
  C   C1        1.0  0.19978  0.46064  0.32895  1.0000
  N   N1        1.0  0.22867  0.48519  0.27180  1.0000
  C   C2        1.0  0.26428  0.48783  0.26231  1.0000
  C   C3        1.0  0.20309  0.76121  0.31866  1.0000
  N   N2        1.0  0.26812  0.80577  0.26953  1.0000
  C   C4        1.0  0.23540  0.76990  0.26103  1.0000
  C   C5        1.0  0.23535  0.74418  0.19696  1.0000
  O   O1        1.0  0.26488  0.75316  0.15286  1.0000
  H   H1        1.0  0.21031  0.72787  0.16455  1.0000
  N   N3        1.0  0.16354  0.57296  0.30275  1.0000
  C   C6        1.0  0.16678  0.60890  0.29843  1.0000
  H   H2        1.0  0.18300  0.62770  0.24795  1.0000
  C   C7        1.0  0.05446  0.40334  0.34774  1.0000
  C   C8        1.0  0.03206  0.38685  0.26785  1.0000
  C   C9        1.0  0.04850  0.39284  0.18246  1.0000
  O   O2        1.0  0.02827  0.37401  0.11837  1.0000
  H   H3        1.0  0.07630  0.39964  0.17793  1.0000
  C   C10       1.0  0.05890  0.67386  0.35438  1.0000
  N   N4        1.0  0.03891  0.66779  0.27561  1.0000
  C   C11       1.0  0.13694  0.50699  0.35496  1.0000
  C   C12       1.0  0.09927  0.47338  0.35346  1.0000
  C   C13       1.0  0.09374  0.43518  0.34734  1.0000
  C   C14       1.0  0.12715  0.43075  0.34068  1.0000
  C   C15       1.0  0.16546  0.46391  0.33765  1.0000
  C   C16       1.0  0.16961  0.50173  0.34389  1.0000
  H   H4        1.0  0.12341  0.40320  0.33555  1.0000
  H   H5        1.0  0.19706  0.52595  0.34449  1.0000
  H   H6        1.0  0.07516  0.47679  0.35633  1.0000
  C   C17       1.0  0.14070  0.65177  0.35155  1.0000
  C   C18       1.0  0.10326  0.64805  0.35802  1.0000
  C   C19       1.0  0.09779  0.68072  0.35037  1.0000
  C   C20       1.0  0.13092  0.71815  0.33578  1.0000
  C   C21       1.0  0.16912  0.72320  0.32908  1.0000
  C   C22       1.0  0.17325  0.68957  0.33797  1.0000
  H   H7        1.0  0.12712  0.74189  0.32971  1.0000
  H   H8        1.0  0.20062  0.69267  0.33776  1.0000
  H   H9        1.0  0.07921  0.62072  0.36606  1.0000
  N   N5        1.0  0.24378  0.43896  0.37605  1.0000
  C   C23       1.0  0.20768  0.43545  0.38114  1.0000
  H   H10       1.0  0.18804  0.41686  0.42763  1.0000
  N   N6        1.0  0.20691  0.79056  0.37416  1.0000
  C   C24       1.0  0.23929  0.82681  0.37847  1.0000
  H   H11       1.0  0.24020  0.84658  0.42436  1.0000
  C   C25       1.0  0.14117  0.54497  0.36452  1.0000
  C   C26       1.0  0.14441  0.61775  0.35817  1.0000
  N   N7        1.0  0.12276  0.59005  0.42063  1.0000
  C   C27       1.0  0.12052  0.55462  0.42906  1.0000
  C   C28       1.0  0.09842  0.53018  0.49924  1.0000
  O   O3        1.0  0.08098  0.54042  0.55074  1.0000
  H   H12       1.0  0.10855  0.51413  0.52721  1.0000
  N   N8        1.0  0.03426  0.39875  0.42569  1.0000
  C   C29       1.0  0.03629  0.65901  0.43352  1.0000
  H   H13       1.0  0.04893  0.65879  0.49360  1.0000
  C   C30       1.0  0.27298  0.46416  0.31980  1.0000
  C   C31       1.0  0.28970  0.51305  0.19734  1.0000
  O   O4        1.0  0.28073  0.53322  0.15169  1.0000
  H   H14       1.0  0.30681  0.50499  0.16606  1.0000
  C   C32       1.0  0.56917  0.83082  0.32076  1.0000
  C   C33       1.0  0.57321  0.76133  0.32948  1.0000
  N   N9        1.0  0.54851  0.76555  0.27261  1.0000
  C   C34       1.0  0.54560  0.79841  0.26324  1.0000
  C   C35       1.0  0.52031  0.79855  0.19824  1.0000
  O   O5        1.0  0.50113  0.76941  0.15176  1.0000
  H   H15       1.0  0.52847  0.82364  0.16670  1.0000
  C   C36       1.0  0.27233  0.83485  0.32588  1.0000
  C   C37       1.0  0.75880  0.57423  0.31974  1.0000
  C   C38       1.0  0.83160  0.57692  0.32971  1.0000
  N   N10       1.0  0.80269  0.55254  0.27243  1.0000
  C   C39       1.0  0.76726  0.55029  0.26256  1.0000
  C   C40       1.0  0.74181  0.52516  0.19753  1.0000
  O   O6        1.0  0.75062  0.50482  0.15204  1.0000
  H   H16       1.0  0.72485  0.53337  0.16611  1.0000
  C   C41       1.0  0.46019  0.20714  0.31633  1.0000
  C   C42       1.0  0.45787  0.27739  0.32830  1.0000
  N   N11       1.0  0.48209  0.27295  0.27036  1.0000
  C   C43       1.0  0.48417  0.23972  0.25959  1.0000
  C   C44       1.0  0.50912  0.23952  0.19394  1.0000
  O   O7        1.0  0.53044  0.26914  0.15085  1.0000
  H   H17       1.0  0.50038  0.21466  0.16060  1.0000
  C   C45       1.0  0.82728  0.27598  0.32009  1.0000
  C   C46       1.0  0.75718  0.20308  0.32951  1.0000
  N   N12       1.0  0.76176  0.23207  0.27243  1.0000
  C   C47       1.0  0.79492  0.26755  0.26277  1.0000
  C   C48       1.0  0.79539  0.29319  0.19789  1.0000
  O   O8        1.0  0.76627  0.28364  0.15164  1.0000
  H   H18       1.0  0.82052  0.30990  0.16628  1.0000
  N   N13       1.0  0.46128  0.61270  0.30247  1.0000
  C   C49       1.0  0.42531  0.58003  0.29826  1.0000
  H   H19       1.0  0.40654  0.57739  0.24765  1.0000
  N   N14       1.0  0.42124  0.87152  0.29655  1.0000
  C   C50       1.0  0.45386  0.86806  0.29383  1.0000
  H   H20       1.0  0.45649  0.85148  0.24432  1.0000
  N   N15       1.0  0.86760  0.46427  0.30302  1.0000
  C   C51       1.0  0.86440  0.42835  0.29852  1.0000
  H   H21       1.0  0.84809  0.40953  0.24816  1.0000
  N   N16       1.0  0.57064  0.42599  0.30292  1.0000
  C   C52       1.0  0.60655  0.45872  0.29846  1.0000
  H   H22       1.0  0.62534  0.46131  0.24794  1.0000
  N   N17       1.0  0.60865  0.16700  0.29883  1.0000
  C   C53       1.0  0.57597  0.17025  0.29327  1.0000
  H   H23       1.0  0.57363  0.18647  0.24245  1.0000
  C   C54       1.0  0.97207  0.36303  0.35361  1.0000
  N   N18       1.0  0.99220  0.36899  0.27511  1.0000
  C   C55       1.0  0.63092  0.67346  0.34760  1.0000
  C   C56       1.0  0.67145  0.63161  0.35391  1.0000
  N   N19       1.0  0.66514  0.64538  0.27517  1.0000
  C   C57       1.0  0.64720  0.66731  0.26759  1.0000
  C   C58       1.0  0.64081  0.67728  0.18194  1.0000
  O   O9        1.0  0.66157  0.67778  0.11995  1.0000
  H   H24       1.0  0.63322  0.69767  0.17719  1.0000
  C   C59       1.0  0.35978  0.98039  0.35694  1.0000
  C   C60       1.0  0.40255  0.06277  0.36355  1.0000
  N   N20       1.0  0.37865  0.04299  0.29284  1.0000
  C   C61       1.0  0.35552  0.00311  0.28782  1.0000
  C   C62       1.0  0.33403  0.98819  0.20964  1.0000
  O   O10       1.0  0.30930  0.99755  0.19525  1.0000
  H   H25       1.0  0.32601  0.96079  0.19377  1.0000
  C   C63       1.0  0.97669  0.63380  0.34808  1.0000
  C   C64       1.0  0.99908  0.65006  0.26809  1.0000
  C   C65       1.0  0.98277  0.64382  0.18253  1.0000
  O   O11       1.0  0.00307  0.66251  0.11840  1.0000
  H   H26       1.0  0.95496  0.63696  0.17763  1.0000
  C   C66       1.0  0.40109  0.36557  0.34826  1.0000
  C   C67       1.0  0.36046  0.40719  0.35408  1.0000
  N   N21       1.0  0.36640  0.39302  0.27556  1.0000
  C   C68       1.0  0.38442  0.37117  0.26832  1.0000
  C   C69       1.0  0.39036  0.36066  0.18295  1.0000
  O   O12       1.0  0.37133  0.36178  0.11899  1.0000
  H   H27       1.0  0.39736  0.33979  0.17850  1.0000
  C   C70       1.0  0.66881  0.05781  0.34803  1.0000
  C   C71       1.0  0.62672  0.97547  0.35422  1.0000
  N   N22       1.0  0.64077  0.99550  0.27556  1.0000
  C   C72       1.0  0.66283  0.03535  0.26814  1.0000
  C   C73       1.0  0.67310  0.05170  0.18252  1.0000
  O   O13       1.0  0.67404  0.03150  0.12095  1.0000
  H   H28       1.0  0.69337  0.07972  0.17791  1.0000
  C   C74       1.0  0.52724  0.65211  0.35461  1.0000
  C   C75       1.0  0.56092  0.64817  0.35297  1.0000
  C   C76       1.0  0.59907  0.68091  0.34702  1.0000
  C   C77       1.0  0.60339  0.71873  0.34083  1.0000
  C   C78       1.0  0.57016  0.72379  0.33785  1.0000
  C   C79       1.0  0.53239  0.69001  0.34388  1.0000
  H   H29       1.0  0.63091  0.74260  0.33580  1.0000
  H   H30       1.0  0.50811  0.69314  0.34460  1.0000
  H   H31       1.0  0.55758  0.62068  0.35568  1.0000
  C   C80       1.0  0.38162  0.89833  0.34679  1.0000
  C   C81       1.0  0.38520  0.93577  0.34740  1.0000
  C   C82       1.0  0.35233  0.94119  0.34685  1.0000
  C   C83       1.0  0.31460  0.90755  0.34050  1.0000
  C   C84       1.0  0.30980  0.86943  0.33339  1.0000
  C   C85       1.0  0.34374  0.86558  0.33640  1.0000
  H   H32       1.0  0.29054  0.91099  0.33998  1.0000
  H   H33       1.0  0.34075  0.83823  0.33581  1.0000
  H   H34       1.0  0.41270  0.95991  0.34984  1.0000
  C   C86       1.0  0.89422  0.53022  0.35526  1.0000
  C   C87       1.0  0.93190  0.56381  0.35351  1.0000
  C   C88       1.0  0.93745  0.60200  0.34757  1.0000
  C   C89       1.0  0.90411  0.60653  0.34129  1.0000
  C   C90       1.0  0.86578  0.57342  0.33838  1.0000
  C   C91       1.0  0.86157  0.53556  0.34448  1.0000
  H   H35       1.0  0.90791  0.63411  0.33618  1.0000
  H   H36       1.0  0.83410  0.51137  0.34505  1.0000
  H   H37       1.0  0.95601  0.56038  0.35613  1.0000
  C   C92       1.0  0.50470  0.38663  0.35531  1.0000
  C   C93       1.0  0.47112  0.39076  0.35395  1.0000
  C   C94       1.0  0.43291  0.35815  0.34774  1.0000
  C   C95       1.0  0.42835  0.32029  0.34090  1.0000
  C   C96       1.0  0.46143  0.31505  0.33768  1.0000
  C   C97       1.0  0.49932  0.34865  0.34398  1.0000
  H   H38       1.0  0.40076  0.29654  0.33555  1.0000
  H   H39       1.0  0.52349  0.34533  0.34425  1.0000
  H   H40       1.0  0.47458  0.41830  0.35688  1.0000
  C   C98       1.0  0.64775  0.14034  0.35291  1.0000
  C   C99       1.0  0.64369  0.10267  0.35196  1.0000
  C   C100      1.0  0.67635  0.09711  0.34718  1.0000
  C   C101      1.0  0.71425  0.13048  0.34132  1.0000
  C   C102      1.0  0.71948  0.16882  0.33778  1.0000
  C   C103      1.0  0.68578  0.17299  0.34271  1.0000
  H   H41       1.0  0.73804  0.12668  0.33702  1.0000
  H   H42       1.0  0.68902  0.20045  0.34280  1.0000
  H   H43       1.0  0.61615  0.07856  0.35418  1.0000
  C   C104      1.0  0.50668  0.14413  0.34504  1.0000
  C   C105      1.0  0.47288  0.10695  0.35407  1.0000
  C   C106      1.0  0.43461  0.10155  0.35130  1.0000
  C   C107      1.0  0.43050  0.13478  0.33583  1.0000
  C   C108      1.0  0.46375  0.17280  0.32547  1.0000
  C   C109      1.0  0.50149  0.17669  0.33181  1.0000
  H   H44       1.0  0.40298  0.13128  0.33349  1.0000
  H   H45       1.0  0.52588  0.20396  0.33069  1.0000
  H   H46       1.0  0.47627  0.08297  0.36204  1.0000
  C   C110      1.0  0.64940  0.52770  0.35144  1.0000
  C   C111      1.0  0.64573  0.56145  0.35750  1.0000
  C   C112      1.0  0.67843  0.59959  0.35001  1.0000
  C   C113      1.0  0.71588  0.60377  0.33601  1.0000
  C   C114      1.0  0.72088  0.57056  0.32956  1.0000
  C   C115      1.0  0.68718  0.53287  0.33844  1.0000
  H   H47       1.0  0.73969  0.63129  0.33014  1.0000
  H   H48       1.0  0.69021  0.50855  0.33849  1.0000
  H   H49       1.0  0.61839  0.55818  0.36527  1.0000
  C   C116      1.0  0.89043  0.38540  0.35136  1.0000
  C   C117      1.0  0.92782  0.38896  0.35722  1.0000
  C   C118      1.0  0.93311  0.35617  0.34996  1.0000
  C   C119      1.0  0.89976  0.31876  0.33613  1.0000
  C   C120      1.0  0.86159  0.31387  0.32985  1.0000
  C   C121      1.0  0.85774  0.34765  0.33858  1.0000
  H   H50       1.0  0.90338  0.29489  0.33031  1.0000
  H   H51       1.0  0.83043  0.34471  0.33884  1.0000
  H   H52       1.0  0.95194  0.41627  0.36481  1.0000
  C   C122      1.0  0.52263  0.89403  0.34895  1.0000
  C   C123      1.0  0.55649  0.93136  0.35572  1.0000
  C   C124      1.0  0.59457  0.93656  0.35010  1.0000
  C   C125      1.0  0.59866  0.90319  0.33713  1.0000
  C   C126      1.0  0.56539  0.86505  0.33007  1.0000
  C   C127      1.0  0.52771  0.86128  0.33711  1.0000
  H   H53       1.0  0.62617  0.90680  0.33234  1.0000
  H   H54       1.0  0.50332  0.83400  0.33673  1.0000
  H   H55       1.0  0.55336  0.95555  0.36263  1.0000
  C   C128      1.0  0.38248  0.51104  0.35123  1.0000
  C   C129      1.0  0.38619  0.47732  0.35742  1.0000
  C   C130      1.0  0.35349  0.43918  0.35025  1.0000
  C   C131      1.0  0.31602  0.43490  0.33622  1.0000
  C   C132      1.0  0.31098  0.46807  0.32966  1.0000
  C   C133      1.0  0.34466  0.50581  0.33818  1.0000
  H   H56       1.0  0.29224  0.40735  0.33046  1.0000
  H   H57       1.0  0.34158  0.53009  0.33813  1.0000
  H   H58       1.0  0.41354  0.48061  0.36505  1.0000
  N   N23       1.0  0.59456  0.82695  0.37668  1.0000
  C   C134      1.0  0.59827  0.79447  0.38170  1.0000
  H   H59       1.0  0.61706  0.79356  0.42781  1.0000
  N   N24       1.0  0.78803  0.59925  0.37615  1.0000
  C   C135      1.0  0.82396  0.60240  0.38154  1.0000
  H   H60       1.0  0.84364  0.62085  0.42815  1.0000
  N   N25       1.0  0.43535  0.21133  0.37338  1.0000
  C   C136      1.0  0.43237  0.24417  0.37978  1.0000
  H   H61       1.0  0.41395  0.24528  0.42666  1.0000
  N   N26       1.0  0.82305  0.24667  0.37627  1.0000
  C   C137      1.0  0.79025  0.21074  0.38156  1.0000
  H   H62       1.0  0.78908  0.19095  0.42775  1.0000
  C   C138      1.0  0.48930  0.61830  0.36412  1.0000
  C   C139      1.0  0.41652  0.54875  0.35780  1.0000
  N   N27       1.0  0.44427  0.55476  0.42009  1.0000
  C   C140      1.0  0.47970  0.58794  0.42846  1.0000
  C   C141      1.0  0.50408  0.59018  0.49852  1.0000
  O   O14       1.0  0.49412  0.56268  0.55046  1.0000
  H   H63       1.0  0.52099  0.61631  0.52605  1.0000
  C   C142      1.0  0.41558  0.89439  0.35676  1.0000
  C   C143      1.0  0.48499  0.89070  0.35363  1.0000
  N   N28       1.0  0.47883  0.91276  0.41469  1.0000
  C   C144      1.0  0.44575  0.91527  0.42153  1.0000
  C   C145      1.0  0.44339  0.93759  0.49105  1.0000
  O   O15       1.0  0.47082  0.95536  0.54304  1.0000
  H   H64       1.0  0.41723  0.92836  0.51839  1.0000
  C   C146      1.0  0.89005  0.49225  0.36470  1.0000
  C   C147      1.0  0.88688  0.41951  0.35795  1.0000
  N   N29       1.0  0.90860  0.44721  0.42034  1.0000
  C   C148      1.0  0.91083  0.48263  0.42898  1.0000
  C   C149      1.0  0.93300  0.50709  0.49904  1.0000
  O   O16       1.0  0.94964  0.49627  0.55154  1.0000
  H   H65       1.0  0.92360  0.52377  0.52679  1.0000
  C   C150      1.0  0.54269  0.42036  0.36479  1.0000
  C   C151      1.0  0.61540  0.48998  0.35811  1.0000
  N   N30       1.0  0.58774  0.48391  0.42070  1.0000
  C   C152      1.0  0.55235  0.45068  0.42931  1.0000
  C   C153      1.0  0.52797  0.44834  0.49962  1.0000
  O   O17       1.0  0.53825  0.47602  0.55113  1.0000
  H   H66       1.0  0.51195  0.42217  0.52761  1.0000
  C   C154      1.0  0.61393  0.14454  0.36103  1.0000
  C   C155      1.0  0.54434  0.14764  0.35184  1.0000
  N   N31       1.0  0.55011  0.12601  0.41485  1.0000
  C   C156      1.0  0.58323  0.12376  0.42459  1.0000
  C   C157      1.0  0.58501  0.10158  0.49516  1.0000
  O   O18       1.0  0.55717  0.08400  0.54622  1.0000
  H   H67       1.0  0.61096  0.11077  0.52363  1.0000
  C   C158      1.0  0.99467  0.37822  0.43271  1.0000
  H   H68       1.0  0.98204  0.37850  0.49277  1.0000
  N   N32       1.0  0.63587  0.65830  0.42584  1.0000
  C   C159      1.0  0.65643  0.63927  0.43291  1.0000
  H   H69       1.0  0.65658  0.62674  0.49323  1.0000
  N   N33       1.0  0.38301  0.00040  0.42819  1.0000
  C   C160      1.0  0.40250  0.03981  0.43676  1.0000
  H   H70       1.0  0.42131  0.05209  0.48992  1.0000
  N   N34       1.0  0.99672  0.63851  0.42631  1.0000
  N   N35       1.0  0.39647  0.38109  0.42625  1.0000
  C   C161      1.0  0.37577  0.39996  0.43322  1.0000
  H   H71       1.0  0.37601  0.41290  0.49321  1.0000
  N   N36       1.0  0.65334  0.03767  0.42610  1.0000
  C   C162      1.0  0.63420  0.99808  0.43324  1.0000
  H   H72       1.0  0.62144  0.98542  0.49339  1.0000
