data_image0
_chemical_formula_structural       C3OHNCHC3H2CNC2OCH3C3OHNCHC3H2CNC2OCH3COHCHNHCH2C2OCH3CNCOHCHNHCH2C2OCH3CNC9OHCNHCNHC2HC8NOCH2C3NOCH3C9OHCNHCNHC2HC8NOCH2C3NOCH3C3OHC2OHOHCNHCNHC3H2CH2C3H3C3NOCH3C3NOCH3C3OHC2OHOHCNHCNHC3H2CH2C3H3C3NOCH3C3NOCH3C6O2H2C6O2H2C6O2H2CNHCNHCNHCNHCNHCNHC3H2C3H2C3H2C3H2C3H2C3H2C3NOCH3C3NOCH3C3NOCH3C3NOCH3C3NOCH3C3NOCH3C6O2H2C6O2H2C6O2H2CNHCNHCNHCNHCNHCNHC3H2C3H2C3H2C3H2C3H2C3H2C3NOCH3C3NOCH3C3NOCH3C3NOCH3C3NOCH3C3NOCH3
_chemical_formula_sum              "C264 O48 H168 N48"
_cell_length_a       46.2151
_cell_length_b       46.2151
_cell_length_c       14.8215
_cell_angle_alpha    90
_cell_angle_beta     90
_cell_angle_gamma    120

_space_group_name_H-M_alt    "P 1"
_space_group_IT_number       1

loop_
  _space_group_symop_operation_xyz
  'x, y, z'

loop_
  _atom_site_type_symbol
  _atom_site_label
  _atom_site_symmetry_multiplicity
  _atom_site_fract_x
  _atom_site_fract_y
  _atom_site_fract_z
  _atom_site_occupancy
  C   C1        1.0  0.02722  0.26529  0.31447  1.0000
  C   C2        1.0  0.04756  0.30138  0.31388  1.0000
  C   C3        1.0  0.08052  0.31855  0.35026  1.0000
  O   O1        1.0  0.03666  0.32184  0.28187  1.0000
  H   H1        1.0  0.03339  0.31770  0.21656  1.0000
  N   N1        1.0  0.10992  0.23998  0.28909  1.0000
  C   C4        1.0  0.11176  0.37636  0.28862  1.0000
  H   H2        1.0  0.10040  0.36866  0.22721  1.0000
  C   C5        1.0  0.09555  0.29926  0.37064  1.0000
  C   C6        1.0  0.07990  0.26478  0.35382  1.0000
  C   C7        1.0  0.04606  0.24853  0.32700  1.0000
  H   H3        1.0  0.12042  0.31145  0.38773  1.0000
  H   H4        1.0  0.03492  0.22330  0.32755  1.0000
  C   C8        1.0  0.09944  0.24920  0.36411  1.0000
  N   N2        1.0  0.11982  0.25822  0.43724  1.0000
  C   C9        1.0  0.12063  0.36643  0.44215  1.0000
  C   C10       1.0  0.10118  0.35378  0.36240  1.0000
  O   O2        1.0  0.11410  0.34755  0.51861  1.0000
  C   C11       1.0  0.09579  0.35466  0.58474  1.0000
  H   H5        1.0  0.10986  0.38064  0.60728  1.0000
  H   H6        1.0  0.09157  0.33861  0.64298  1.0000
  H   H7        1.0  0.07147  0.34932  0.55875  1.0000
  C   C12       1.0  0.02722  0.76529  0.31447  1.0000
  C   C13       1.0  0.04756  0.80138  0.31388  1.0000
  C   C14       1.0  0.08052  0.81855  0.35026  1.0000
  O   O3        1.0  0.03666  0.82184  0.28187  1.0000
  H   H8        1.0  0.03339  0.81771  0.21656  1.0000
  N   N3        1.0  0.10992  0.73998  0.28909  1.0000
  C   C15       1.0  0.11177  0.87636  0.28862  1.0000
  H   H9        1.0  0.10040  0.86866  0.22721  1.0000
  C   C16       1.0  0.09555  0.79926  0.37064  1.0000
  C   C17       1.0  0.07990  0.76478  0.35382  1.0000
  C   C18       1.0  0.04605  0.74853  0.32700  1.0000
  H   H10       1.0  0.12042  0.81145  0.38773  1.0000
  H   H11       1.0  0.03492  0.72330  0.32755  1.0000
  C   C19       1.0  0.09944  0.74920  0.36411  1.0000
  N   N4        1.0  0.11982  0.75822  0.43724  1.0000
  C   C20       1.0  0.12063  0.86643  0.44215  1.0000
  C   C21       1.0  0.10118  0.85378  0.36240  1.0000
  O   O4        1.0  0.11410  0.84755  0.51861  1.0000
  C   C22       1.0  0.09579  0.85466  0.58474  1.0000
  H   H12       1.0  0.10986  0.88064  0.60728  1.0000
  H   H13       1.0  0.09157  0.83861  0.64298  1.0000
  H   H14       1.0  0.07147  0.84932  0.55875  1.0000
  C   C23       1.0  0.19656  0.26520  0.34889  1.0000
  O   O5        1.0  0.19339  0.21809  0.28049  1.0000
  H   H15       1.0  0.19770  0.21905  0.21526  1.0000
  C   C24       1.0  0.13884  0.23869  0.28647  1.0000
  H   H16       1.0  0.14664  0.23514  0.22507  1.0000
  N   N5        1.0  0.14199  0.40526  0.29135  1.0000
  H   H17       1.0  0.20361  0.31217  0.38635  1.0000
  C   C25       1.0  0.19684  0.43521  0.35598  1.0000
  H   H18       1.0  0.20311  0.39482  0.39035  1.0000
  H   H19       1.0  0.20021  0.48008  0.32876  1.0000
  C   C26       1.0  0.14857  0.25729  0.44028  1.0000
  C   C27       1.0  0.16130  0.25064  0.36045  1.0000
  O   O6        1.0  0.16736  0.26957  0.51692  1.0000
  C   C28       1.0  0.16025  0.24408  0.58280  1.0000
  H   H20       1.0  0.13425  0.23207  0.60516  1.0000
  H   H21       1.0  0.17623  0.25585  0.64120  1.0000
  H   H22       1.0  0.16569  0.22518  0.55667  1.0000
  C   C29       1.0  0.16171  0.41560  0.36631  1.0000
  N   N6        1.0  0.15036  0.39515  0.43926  1.0000
  C   C30       1.0  0.19656  0.76520  0.34889  1.0000
  O   O7        1.0  0.19339  0.71809  0.28049  1.0000
  H   H23       1.0  0.19770  0.71905  0.21526  1.0000
  C   C31       1.0  0.13884  0.73868  0.28647  1.0000
  H   H24       1.0  0.14664  0.73514  0.22507  1.0000
  N   N7        1.0  0.14199  0.90526  0.29135  1.0000
  H   H25       1.0  0.20361  0.81217  0.38635  1.0000
  C   C32       1.0  0.19684  0.93521  0.35598  1.0000
  H   H26       1.0  0.20311  0.89482  0.39035  1.0000
  H   H27       1.0  0.20021  0.98008  0.32876  1.0000
  C   C33       1.0  0.14857  0.75729  0.44028  1.0000
  C   C34       1.0  0.16130  0.75064  0.36045  1.0000
  O   O8        1.0  0.16736  0.76957  0.51692  1.0000
  C   C35       1.0  0.16025  0.74408  0.58280  1.0000
  H   H28       1.0  0.13425  0.73207  0.60516  1.0000
  H   H29       1.0  0.17623  0.75586  0.64120  1.0000
  H   H30       1.0  0.16569  0.72518  0.55667  1.0000
  C   C36       1.0  0.16171  0.91560  0.36631  1.0000
  N   N8        1.0  0.15036  0.89515  0.43926  1.0000
  C   C37       1.0  0.26824  0.24699  0.31435  1.0000
  C   C38       1.0  0.24988  0.26510  0.31430  1.0000
  C   C39       1.0  0.21379  0.24939  0.31296  1.0000
  C   C40       1.0  0.26803  0.02420  0.31460  1.0000
  C   C41       1.0  0.26825  0.07769  0.34876  1.0000
  C   C42       1.0  0.25236  0.04461  0.31319  1.0000
  C   C43       1.0  0.24986  0.48773  0.31496  1.0000
  C   C44       1.0  0.26557  0.46737  0.31390  1.0000
  C   C45       1.0  0.24995  0.43455  0.35115  1.0000
  O   O9        1.0  0.22103  0.03368  0.28089  1.0000
  H   H31       1.0  0.22192  0.03026  0.21568  1.0000
  C   C46       1.0  0.27650  0.40352  0.28791  1.0000
  N   N9        1.0  0.27511  0.37325  0.28999  1.0000
  H   H32       1.0  0.27980  0.41474  0.22643  1.0000
  C   C47       1.0  0.24161  0.10888  0.28687  1.0000
  N   N10       1.0  0.24291  0.13909  0.28967  1.0000
  H   H33       1.0  0.23797  0.09752  0.22545  1.0000
  C   C48       1.0  0.25150  0.21141  0.32704  1.0000
  C   C49       1.0  0.26778  0.19392  0.35447  1.0000
  H   H34       1.0  0.22628  0.19728  0.32733  1.0000
  C   C50       1.0  0.21583  0.29949  0.36967  1.0000
  C   C51       1.0  0.25035  0.31825  0.35370  1.0000
  C   C52       1.0  0.26665  0.30064  0.32762  1.0000
  C   C53       1.0  0.21574  0.41964  0.37285  1.0000
  C   C54       1.0  0.21431  0.46895  0.32822  1.0000
  C   C55       1.0  0.25799  0.39431  0.44176  1.0000
  C   C56       1.0  0.26444  0.41377  0.36220  1.0000
  C   C57       1.0  0.26599  0.35332  0.36458  1.0000
  N   N11       1.0  0.25704  0.36463  0.43799  1.0000
  O   O10       1.0  0.24569  0.40055  0.51879  1.0000
  C   C58       1.0  0.27122  0.41898  0.58453  1.0000
  H   H35       1.0  0.28345  0.40512  0.60630  1.0000
  H   H36       1.0  0.25944  0.42295  0.64329  1.0000
  C   C59       1.0  0.26043  0.11773  0.44045  1.0000
  C   C60       1.0  0.25365  0.09833  0.36060  1.0000
  C   C61       1.0  0.25227  0.15879  0.36469  1.0000
  N   N12       1.0  0.26137  0.14743  0.43761  1.0000
  O   O11       1.0  0.27279  0.11121  0.51690  1.0000
  C   C62       1.0  0.24736  0.09276  0.58287  1.0000
  H   H37       1.0  0.23532  0.10670  0.60546  1.0000
  H   H38       1.0  0.25919  0.08856  0.64111  1.0000
  H   H39       1.0  0.22848  0.06843  0.55670  1.0000
  C   C63       1.0  0.26824  0.74699  0.31435  1.0000
  C   C64       1.0  0.24988  0.76510  0.31430  1.0000
  C   C65       1.0  0.21378  0.74939  0.31296  1.0000
  C   C66       1.0  0.26803  0.52420  0.31460  1.0000
  C   C67       1.0  0.26825  0.57769  0.34876  1.0000
  C   C68       1.0  0.25236  0.54461  0.31319  1.0000
  C   C69       1.0  0.24986  0.98773  0.31496  1.0000
  C   C70       1.0  0.26557  0.96737  0.31390  1.0000
  C   C71       1.0  0.24995  0.93455  0.35115  1.0000
  O   O12       1.0  0.22103  0.53368  0.28089  1.0000
  H   H40       1.0  0.22192  0.53026  0.21568  1.0000
  C   C72       1.0  0.27650  0.90352  0.28791  1.0000
  N   N13       1.0  0.27511  0.87325  0.28999  1.0000
  H   H41       1.0  0.27979  0.91474  0.22643  1.0000
  C   C73       1.0  0.24161  0.60888  0.28687  1.0000
  N   N14       1.0  0.24291  0.63909  0.28967  1.0000
  H   H42       1.0  0.23797  0.59752  0.22545  1.0000
  C   C74       1.0  0.25150  0.71141  0.32704  1.0000
  C   C75       1.0  0.26778  0.69392  0.35447  1.0000
  H   H43       1.0  0.22628  0.69728  0.32733  1.0000
  C   C76       1.0  0.21583  0.79948  0.36967  1.0000
  C   C77       1.0  0.25035  0.81825  0.35370  1.0000
  C   C78       1.0  0.26665  0.80064  0.32762  1.0000
  C   C79       1.0  0.21574  0.91964  0.37285  1.0000
  C   C80       1.0  0.21431  0.96895  0.32822  1.0000
  C   C81       1.0  0.25798  0.89431  0.44176  1.0000
  C   C82       1.0  0.26444  0.91377  0.36220  1.0000
  C   C83       1.0  0.26599  0.85333  0.36458  1.0000
  N   N15       1.0  0.25704  0.86463  0.43799  1.0000
  O   O13       1.0  0.24569  0.90055  0.51879  1.0000
  C   C84       1.0  0.27122  0.91898  0.58453  1.0000
  H   H44       1.0  0.28345  0.90512  0.60630  1.0000
  H   H45       1.0  0.25944  0.92295  0.64329  1.0000
  C   C85       1.0  0.26043  0.61773  0.44045  1.0000
  C   C86       1.0  0.25365  0.59833  0.36060  1.0000
  C   C87       1.0  0.25227  0.65879  0.36469  1.0000
  N   N16       1.0  0.26137  0.64743  0.43761  1.0000
  O   O14       1.0  0.27279  0.61121  0.51690  1.0000
  C   C88       1.0  0.24735  0.59276  0.58287  1.0000
  H   H46       1.0  0.23532  0.60671  0.60546  1.0000
  H   H47       1.0  0.25919  0.58856  0.64111  1.0000
  H   H48       1.0  0.22848  0.56843  0.55670  1.0000
  C   C89       1.0  0.49074  0.24690  0.31491  1.0000
  C   C90       1.0  0.43762  0.19361  0.35183  1.0000
  C   C91       1.0  0.47041  0.21081  0.31422  1.0000
  O   O15       1.0  0.48120  0.19045  0.28073  1.0000
  H   H49       1.0  0.48442  0.19490  0.21554  1.0000
  C   C92       1.0  0.32152  0.24707  0.35057  1.0000
  C   C93       1.0  0.30433  0.26276  0.31364  1.0000
  O   O16       1.0  0.32472  0.29398  0.28062  1.0000
  H   H50       1.0  0.32033  0.29289  0.21542  1.0000
  O   O17       1.0  0.29673  0.47818  0.28036  1.0000
  H   H51       1.0  0.29554  0.48155  0.21525  1.0000
  C   C94       1.0  0.37939  0.27379  0.28893  1.0000
  N   N17       1.0  0.40819  0.27227  0.29170  1.0000
  H   H52       1.0  0.37173  0.27731  0.22728  1.0000
  C   C95       1.0  0.40655  0.13610  0.28806  1.0000
  N   N18       1.0  0.37629  0.10723  0.28992  1.0000
  H   H53       1.0  0.41779  0.14412  0.22662  1.0000
  C   C96       1.0  0.47188  0.26359  0.32798  1.0000
  C   C97       1.0  0.43822  0.24733  0.35638  1.0000
  C   C98       1.0  0.42278  0.21292  0.37412  1.0000
  H   H54       1.0  0.48287  0.28880  0.32730  1.0000
  H   H55       1.0  0.39796  0.20070  0.39171  1.0000
  C   C99       1.0  0.30224  0.21282  0.37166  1.0000
  H   H56       1.0  0.31444  0.20017  0.38889  1.0000
  H   H57       1.0  0.29189  0.31469  0.32860  1.0000
  C   C100      1.0  0.30358  0.04293  0.32786  1.0000
  C   C101      1.0  0.32127  0.07689  0.35345  1.0000
  C   C102      1.0  0.30256  0.09273  0.36923  1.0000
  H   H58       1.0  0.31757  0.03168  0.32945  1.0000
  H   H59       1.0  0.31529  0.11766  0.38558  1.0000
  H   H60       1.0  0.28994  0.44342  0.55855  1.0000
  C   C103      1.0  0.36943  0.25496  0.44238  1.0000
  C   C104      1.0  0.35676  0.26170  0.36257  1.0000
  C   C105      1.0  0.41855  0.26277  0.36646  1.0000
  N   N19       1.0  0.39805  0.25380  0.43935  1.0000
  O   O18       1.0  0.35062  0.24260  0.51895  1.0000
  C   C106      1.0  0.35760  0.26805  0.58485  1.0000
  H   H61       1.0  0.38360  0.28016  0.60725  1.0000
  H   H62       1.0  0.34163  0.25622  0.64321  1.0000
  H   H63       1.0  0.35206  0.28688  0.55871  1.0000
  C   C107      1.0  0.39731  0.14519  0.44204  1.0000
  C   C108      1.0  0.41680  0.15831  0.36258  1.0000
  C   C109      1.0  0.35634  0.09628  0.36446  1.0000
  N   N20       1.0  0.36763  0.11645  0.43805  1.0000
  O   O19       1.0  0.40352  0.16361  0.51929  1.0000
  C   C110      1.0  0.42193  0.15641  0.58487  1.0000
  H   H64       1.0  0.40807  0.13030  0.60636  1.0000
  H   H65       1.0  0.42588  0.17208  0.64380  1.0000
  H   H66       1.0  0.44637  0.16218  0.55886  1.0000
  C   C111      1.0  0.49074  0.74690  0.31491  1.0000
  C   C112      1.0  0.43762  0.69361  0.35183  1.0000
  C   C113      1.0  0.47041  0.71081  0.31422  1.0000
  O   O20       1.0  0.48120  0.69045  0.28073  1.0000
  H   H67       1.0  0.48442  0.69490  0.21554  1.0000
  C   C114      1.0  0.32152  0.74708  0.35057  1.0000
  C   C115      1.0  0.30433  0.76276  0.31364  1.0000
  O   O21       1.0  0.32472  0.79398  0.28062  1.0000
  H   H68       1.0  0.32033  0.79289  0.21542  1.0000
  O   O22       1.0  0.29673  0.97818  0.28036  1.0000
  H   H69       1.0  0.29553  0.98155  0.21525  1.0000
  C   C116      1.0  0.37939  0.77379  0.28893  1.0000
  N   N21       1.0  0.40819  0.77226  0.29170  1.0000
  H   H70       1.0  0.37174  0.77731  0.22728  1.0000
  C   C117      1.0  0.40655  0.63610  0.28806  1.0000
  N   N22       1.0  0.37629  0.60723  0.28992  1.0000
  H   H71       1.0  0.41779  0.64412  0.22662  1.0000
  C   C118      1.0  0.47188  0.76359  0.32798  1.0000
  C   C119      1.0  0.43822  0.74733  0.35638  1.0000
  C   C120      1.0  0.42278  0.71292  0.37412  1.0000
  H   H72       1.0  0.48287  0.78880  0.32730  1.0000
  H   H73       1.0  0.39796  0.70070  0.39171  1.0000
  C   C121      1.0  0.30224  0.71282  0.37166  1.0000
  H   H74       1.0  0.31444  0.70017  0.38889  1.0000
  H   H75       1.0  0.29189  0.81469  0.32860  1.0000
  C   C122      1.0  0.30358  0.54293  0.32786  1.0000
  C   C123      1.0  0.32127  0.57689  0.35345  1.0000
  C   C124      1.0  0.30256  0.59272  0.36923  1.0000
  H   H76       1.0  0.31757  0.53168  0.32945  1.0000
  H   H77       1.0  0.31529  0.61766  0.38558  1.0000
  H   H78       1.0  0.28994  0.94342  0.55855  1.0000
  C   C125      1.0  0.36943  0.75496  0.44238  1.0000
  C   C126      1.0  0.35676  0.76170  0.36257  1.0000
  C   C127      1.0  0.41855  0.76277  0.36646  1.0000
  N   N23       1.0  0.39805  0.75380  0.43935  1.0000
  O   O23       1.0  0.35062  0.74260  0.51895  1.0000
  C   C128      1.0  0.35760  0.76805  0.58485  1.0000
  H   H79       1.0  0.38360  0.78016  0.60725  1.0000
  H   H80       1.0  0.34163  0.75622  0.64321  1.0000
  H   H81       1.0  0.35206  0.78688  0.55871  1.0000
  C   C129      1.0  0.39731  0.64519  0.44204  1.0000
  C   C130      1.0  0.41680  0.65831  0.36258  1.0000
  C   C131      1.0  0.35634  0.59628  0.36446  1.0000
  N   N24       1.0  0.36763  0.61645  0.43805  1.0000
  O   O24       1.0  0.40352  0.66361  0.51929  1.0000
  C   C132      1.0  0.42193  0.65641  0.58487  1.0000
  H   H82       1.0  0.40807  0.63030  0.60636  1.0000
  H   H83       1.0  0.42588  0.67208  0.64380  1.0000
  H   H84       1.0  0.44637  0.66218  0.55886  1.0000
  C   C133      1.0  0.99074  0.24690  0.31491  1.0000
  C   C134      1.0  0.93762  0.19361  0.35183  1.0000
  C   C135      1.0  0.97041  0.21081  0.31422  1.0000
  C   C136      1.0  0.52722  0.26529  0.31447  1.0000
  C   C137      1.0  0.54756  0.30138  0.31388  1.0000
  C   C138      1.0  0.58052  0.31855  0.35026  1.0000
  O   O25       1.0  0.98120  0.19045  0.28073  1.0000
  O   O26       1.0  0.53666  0.32184  0.28187  1.0000
  H   H85       1.0  0.98442  0.19490  0.21554  1.0000
  H   H86       1.0  0.53339  0.31770  0.21656  1.0000
  C   C139      1.0  0.76824  0.24699  0.31435  1.0000
  C   C140      1.0  0.82152  0.24707  0.35057  1.0000
  C   C141      1.0  0.80433  0.26276  0.31364  1.0000
  C   C142      1.0  0.74988  0.26510  0.31430  1.0000
  C   C143      1.0  0.71378  0.24939  0.31296  1.0000
  C   C144      1.0  0.69656  0.26520  0.34889  1.0000
  O   O27       1.0  0.82472  0.29398  0.28062  1.0000
  O   O28       1.0  0.69339  0.21809  0.28049  1.0000
  H   H87       1.0  0.82033  0.29289  0.21542  1.0000
  H   H88       1.0  0.69770  0.21905  0.21526  1.0000
  C   C145      1.0  0.76803  0.02420  0.31460  1.0000
  C   C146      1.0  0.76825  0.07769  0.34876  1.0000
  C   C147      1.0  0.75236  0.04461  0.31319  1.0000
  C   C148      1.0  0.74986  0.48773  0.31496  1.0000
  C   C149      1.0  0.76557  0.46737  0.31390  1.0000
  C   C150      1.0  0.74995  0.43455  0.35115  1.0000
  O   O29       1.0  0.72103  0.03368  0.28089  1.0000
  O   O30       1.0  0.79673  0.47818  0.28036  1.0000
  H   H89       1.0  0.72192  0.03026  0.21568  1.0000
  H   H90       1.0  0.79554  0.48155  0.21525  1.0000
  C   C151      1.0  0.63884  0.23869  0.28647  1.0000
  N   N25       1.0  0.60992  0.23998  0.28909  1.0000
  H   H91       1.0  0.64664  0.23514  0.22507  1.0000
  C   C152      1.0  0.77650  0.40352  0.28791  1.0000
  N   N26       1.0  0.77511  0.37325  0.28999  1.0000
  H   H92       1.0  0.77979  0.41474  0.22643  1.0000
  C   C153      1.0  0.61177  0.37636  0.28862  1.0000
  N   N27       1.0  0.64199  0.40526  0.29135  1.0000
  H   H93       1.0  0.60040  0.36866  0.22721  1.0000
  C   C154      1.0  0.87939  0.27379  0.28893  1.0000
  N   N28       1.0  0.90819  0.27227  0.29170  1.0000
  H   H94       1.0  0.87174  0.27731  0.22728  1.0000
  C   C155      1.0  0.74161  0.10888  0.28687  1.0000
  N   N29       1.0  0.74291  0.13909  0.28967  1.0000
  H   H95       1.0  0.73797  0.09752  0.22545  1.0000
  C   C156      1.0  0.90656  0.13610  0.28806  1.0000
  N   N30       1.0  0.87629  0.10723  0.28992  1.0000
  H   H96       1.0  0.91779  0.14412  0.22662  1.0000
  C   C157      1.0  0.97188  0.26359  0.32798  1.0000
  C   C158      1.0  0.93822  0.24733  0.35638  1.0000
  C   C159      1.0  0.92278  0.21292  0.37412  1.0000
  H   H97       1.0  0.98287  0.28880  0.32730  1.0000
  H   H98       1.0  0.89796  0.20070  0.39171  1.0000
  C   C160      1.0  0.59555  0.29926  0.37064  1.0000
  C   C161      1.0  0.57990  0.26478  0.35382  1.0000
  C   C162      1.0  0.54606  0.24853  0.32700  1.0000
  H   H99       1.0  0.62042  0.31145  0.38773  1.0000
  H   H100      1.0  0.53492  0.22330  0.32755  1.0000
  C   C163      1.0  0.75150  0.21141  0.32704  1.0000
  C   C164      1.0  0.76778  0.19392  0.35447  1.0000
  C   C165      1.0  0.80224  0.21282  0.37166  1.0000
  H   H101      1.0  0.72628  0.19728  0.32733  1.0000
  H   H102      1.0  0.81444  0.20017  0.38889  1.0000
  C   C166      1.0  0.71583  0.29949  0.36967  1.0000
  C   C167      1.0  0.75035  0.31825  0.35370  1.0000
  C   C168      1.0  0.76665  0.30064  0.32762  1.0000
  H   H103      1.0  0.70361  0.31217  0.38635  1.0000
  H   H104      1.0  0.79188  0.31469  0.32860  1.0000
  C   C169      1.0  0.80358  0.04293  0.32786  1.0000
  C   C170      1.0  0.82127  0.07689  0.35345  1.0000
  C   C171      1.0  0.80256  0.09273  0.36923  1.0000
  H   H105      1.0  0.81757  0.03168  0.32945  1.0000
  H   H106      1.0  0.81529  0.11766  0.38558  1.0000
  C   C172      1.0  0.71574  0.41964  0.37285  1.0000
  C   C173      1.0  0.69684  0.43521  0.35598  1.0000
  C   C174      1.0  0.71431  0.46895  0.32822  1.0000
  H   H107      1.0  0.70311  0.39482  0.39035  1.0000
  H   H108      1.0  0.70021  0.48008  0.32876  1.0000
  C   C175      1.0  0.64857  0.25729  0.44028  1.0000
  C   C176      1.0  0.66130  0.25064  0.36045  1.0000
  C   C177      1.0  0.59944  0.24920  0.36411  1.0000
  N   N31       1.0  0.61982  0.25822  0.43724  1.0000
  O   O31       1.0  0.66736  0.26957  0.51692  1.0000
  C   C178      1.0  0.66026  0.24408  0.58280  1.0000
  H   H109      1.0  0.63425  0.23207  0.60516  1.0000
  H   H110      1.0  0.67623  0.25585  0.64120  1.0000
  H   H111      1.0  0.66569  0.22518  0.55667  1.0000
  C   C179      1.0  0.75799  0.39431  0.44176  1.0000
  C   C180      1.0  0.76444  0.41377  0.36220  1.0000
  C   C181      1.0  0.76599  0.35332  0.36458  1.0000
  N   N32       1.0  0.75704  0.36463  0.43799  1.0000
  O   O32       1.0  0.74569  0.40055  0.51879  1.0000
  C   C182      1.0  0.77122  0.41898  0.58453  1.0000
  H   H112      1.0  0.78345  0.40512  0.60630  1.0000
  H   H113      1.0  0.75944  0.42295  0.64329  1.0000
  H   H114      1.0  0.78994  0.44342  0.55855  1.0000
  C   C183      1.0  0.62063  0.36643  0.44215  1.0000
  C   C184      1.0  0.60118  0.35378  0.36240  1.0000
  C   C185      1.0  0.66171  0.41560  0.36631  1.0000
  N   N33       1.0  0.65036  0.39515  0.43926  1.0000
  O   O33       1.0  0.61410  0.34755  0.51861  1.0000
  C   C186      1.0  0.59579  0.35466  0.58474  1.0000
  H   H115      1.0  0.60986  0.38064  0.60728  1.0000
  H   H116      1.0  0.59157  0.33861  0.64298  1.0000
  H   H117      1.0  0.57147  0.34932  0.55875  1.0000
  C   C187      1.0  0.86943  0.25496  0.44238  1.0000
  C   C188      1.0  0.85676  0.26170  0.36257  1.0000
  C   C189      1.0  0.91855  0.26277  0.36646  1.0000
  N   N34       1.0  0.89805  0.25380  0.43935  1.0000
  O   O34       1.0  0.85061  0.24260  0.51895  1.0000
  C   C190      1.0  0.85760  0.26805  0.58485  1.0000
  H   H118      1.0  0.88360  0.28016  0.60725  1.0000
  H   H119      1.0  0.84163  0.25622  0.64321  1.0000
  H   H120      1.0  0.85206  0.28688  0.55871  1.0000
  C   C191      1.0  0.76043  0.11773  0.44045  1.0000
  C   C192      1.0  0.75365  0.09833  0.36060  1.0000
  C   C193      1.0  0.75227  0.15879  0.36469  1.0000
  N   N35       1.0  0.76137  0.14743  0.43761  1.0000
  O   O35       1.0  0.77279  0.11121  0.51690  1.0000
  C   C194      1.0  0.74736  0.09276  0.58287  1.0000
  H   H121      1.0  0.73532  0.10670  0.60546  1.0000
  H   H122      1.0  0.75919  0.08856  0.64111  1.0000
  H   H123      1.0  0.72847  0.06843  0.55670  1.0000
  C   C195      1.0  0.89731  0.14519  0.44204  1.0000
  C   C196      1.0  0.91680  0.15831  0.36258  1.0000
  C   C197      1.0  0.85634  0.09628  0.36446  1.0000
  N   N36       1.0  0.86763  0.11645  0.43805  1.0000
  O   O36       1.0  0.90352  0.16361  0.51929  1.0000
  C   C198      1.0  0.92193  0.15641  0.58487  1.0000
  H   H124      1.0  0.90807  0.13030  0.60636  1.0000
  H   H125      1.0  0.92588  0.17208  0.64380  1.0000
  H   H126      1.0  0.94637  0.16218  0.55886  1.0000
  C   C199      1.0  0.99074  0.74690  0.31491  1.0000
  C   C200      1.0  0.93762  0.69361  0.35183  1.0000
  C   C201      1.0  0.97040  0.71081  0.31422  1.0000
  C   C202      1.0  0.52722  0.76529  0.31447  1.0000
  C   C203      1.0  0.54756  0.80138  0.31388  1.0000
  C   C204      1.0  0.58052  0.81855  0.35026  1.0000
  O   O37       1.0  0.98120  0.69045  0.28073  1.0000
  O   O38       1.0  0.53666  0.82184  0.28187  1.0000
  H   H127      1.0  0.98442  0.69490  0.21554  1.0000
  H   H128      1.0  0.53339  0.81771  0.21656  1.0000
  C   C205      1.0  0.76824  0.74699  0.31435  1.0000
  C   C206      1.0  0.82152  0.74708  0.35057  1.0000
  C   C207      1.0  0.80433  0.76276  0.31364  1.0000
  C   C208      1.0  0.74987  0.76510  0.31430  1.0000
  C   C209      1.0  0.71379  0.74939  0.31296  1.0000
  C   C210      1.0  0.69656  0.76520  0.34889  1.0000
  O   O39       1.0  0.82472  0.79398  0.28062  1.0000
  O   O40       1.0  0.69339  0.71809  0.28049  1.0000
  H   H129      1.0  0.82033  0.79289  0.21542  1.0000
  H   H130      1.0  0.69770  0.71905  0.21526  1.0000
  C   C211      1.0  0.76803  0.52420  0.31460  1.0000
  C   C212      1.0  0.76825  0.57769  0.34876  1.0000
  C   C213      1.0  0.75236  0.54461  0.31319  1.0000
  C   C214      1.0  0.74986  0.98773  0.31496  1.0000
  C   C215      1.0  0.76557  0.96737  0.31390  1.0000
  C   C216      1.0  0.74995  0.93455  0.35115  1.0000
  O   O41       1.0  0.72103  0.53368  0.28089  1.0000
  O   O42       1.0  0.79673  0.97818  0.28036  1.0000
  H   H131      1.0  0.72192  0.53026  0.21568  1.0000
  H   H132      1.0  0.79554  0.98155  0.21525  1.0000
  C   C217      1.0  0.63884  0.73868  0.28647  1.0000
  N   N37       1.0  0.60992  0.73998  0.28909  1.0000
  H   H133      1.0  0.64664  0.73514  0.22507  1.0000
  C   C218      1.0  0.77650  0.90352  0.28791  1.0000
  N   N38       1.0  0.77511  0.87325  0.28999  1.0000
  H   H134      1.0  0.77980  0.91474  0.22643  1.0000
  C   C219      1.0  0.61176  0.87636  0.28862  1.0000
  N   N39       1.0  0.64199  0.90526  0.29135  1.0000
  H   H135      1.0  0.60040  0.86866  0.22721  1.0000
  C   C220      1.0  0.87939  0.77379  0.28893  1.0000
  N   N40       1.0  0.90819  0.77226  0.29170  1.0000
  H   H136      1.0  0.87174  0.77731  0.22728  1.0000
  C   C221      1.0  0.74161  0.60888  0.28687  1.0000
  N   N41       1.0  0.74291  0.63909  0.28967  1.0000
  H   H137      1.0  0.73797  0.59752  0.22545  1.0000
  C   C222      1.0  0.90655  0.63610  0.28806  1.0000
  N   N42       1.0  0.87629  0.60723  0.28992  1.0000
  H   H138      1.0  0.91779  0.64412  0.22662  1.0000
  C   C223      1.0  0.97188  0.76359  0.32798  1.0000
  C   C224      1.0  0.93822  0.74733  0.35638  1.0000
  C   C225      1.0  0.92278  0.71292  0.37412  1.0000
  H   H139      1.0  0.98287  0.78880  0.32730  1.0000
  H   H140      1.0  0.89797  0.70070  0.39171  1.0000
  C   C226      1.0  0.59555  0.79926  0.37064  1.0000
  C   C227      1.0  0.57990  0.76478  0.35382  1.0000
  C   C228      1.0  0.54606  0.74853  0.32700  1.0000
  H   H141      1.0  0.62042  0.81145  0.38773  1.0000
  H   H142      1.0  0.53492  0.72330  0.32755  1.0000
  C   C229      1.0  0.75150  0.71141  0.32704  1.0000
  C   C230      1.0  0.76778  0.69392  0.35447  1.0000
  C   C231      1.0  0.80224  0.71282  0.37166  1.0000
  H   H143      1.0  0.72628  0.69728  0.32733  1.0000
  H   H144      1.0  0.81444  0.70017  0.38889  1.0000
  C   C232      1.0  0.71583  0.79948  0.36967  1.0000
  C   C233      1.0  0.75035  0.81825  0.35370  1.0000
  C   C234      1.0  0.76665  0.80064  0.32762  1.0000
  H   H145      1.0  0.70361  0.81217  0.38635  1.0000
  H   H146      1.0  0.79188  0.81469  0.32860  1.0000
  C   C235      1.0  0.80358  0.54293  0.32786  1.0000
  C   C236      1.0  0.82127  0.57689  0.35345  1.0000
  C   C237      1.0  0.80256  0.59272  0.36923  1.0000
  H   H147      1.0  0.81757  0.53168  0.32945  1.0000
  H   H148      1.0  0.81529  0.61766  0.38558  1.0000
  C   C238      1.0  0.71574  0.91964  0.37285  1.0000
  C   C239      1.0  0.69683  0.93521  0.35598  1.0000
  C   C240      1.0  0.71431  0.96895  0.32822  1.0000
  H   H149      1.0  0.70311  0.89482  0.39035  1.0000
  H   H150      1.0  0.70021  0.98008  0.32876  1.0000
  C   C241      1.0  0.64857  0.75729  0.44028  1.0000
  C   C242      1.0  0.66130  0.75064  0.36045  1.0000
  C   C243      1.0  0.59944  0.74920  0.36411  1.0000
  N   N43       1.0  0.61982  0.75822  0.43724  1.0000
  O   O43       1.0  0.66736  0.76957  0.51692  1.0000
  C   C244      1.0  0.66025  0.74408  0.58280  1.0000
  H   H151      1.0  0.63425  0.73207  0.60516  1.0000
  H   H152      1.0  0.67623  0.75586  0.64120  1.0000
  H   H153      1.0  0.66569  0.72518  0.55667  1.0000
  C   C245      1.0  0.75798  0.89431  0.44176  1.0000
  C   C246      1.0  0.76444  0.91377  0.36220  1.0000
  C   C247      1.0  0.76600  0.85333  0.36458  1.0000
  N   N44       1.0  0.75704  0.86463  0.43799  1.0000
  O   O44       1.0  0.74569  0.90055  0.51879  1.0000
  C   C248      1.0  0.77122  0.91898  0.58453  1.0000
  H   H154      1.0  0.78345  0.90512  0.60630  1.0000
  H   H155      1.0  0.75944  0.92295  0.64329  1.0000
  H   H156      1.0  0.78994  0.94342  0.55855  1.0000
  C   C249      1.0  0.62063  0.86643  0.44215  1.0000
  C   C250      1.0  0.60118  0.85378  0.36240  1.0000
  C   C251      1.0  0.66171  0.91560  0.36631  1.0000
  N   N45       1.0  0.65036  0.89515  0.43926  1.0000
  O   O45       1.0  0.61410  0.84755  0.51861  1.0000
  C   C252      1.0  0.59579  0.85466  0.58474  1.0000
  H   H157      1.0  0.60986  0.88064  0.60728  1.0000
  H   H158      1.0  0.59157  0.83861  0.64298  1.0000
  H   H159      1.0  0.57147  0.84932  0.55875  1.0000
  C   C253      1.0  0.86943  0.75496  0.44238  1.0000
  C   C254      1.0  0.85676  0.76170  0.36257  1.0000
  C   C255      1.0  0.91855  0.76277  0.36646  1.0000
  N   N46       1.0  0.89805  0.75380  0.43935  1.0000
  O   O46       1.0  0.85061  0.74260  0.51895  1.0000
  C   C256      1.0  0.85760  0.76805  0.58485  1.0000
  H   H160      1.0  0.88360  0.78016  0.60725  1.0000
  H   H161      1.0  0.84163  0.75622  0.64321  1.0000
  H   H162      1.0  0.85206  0.78688  0.55871  1.0000
  C   C257      1.0  0.76043  0.61773  0.44045  1.0000
  C   C258      1.0  0.75365  0.59833  0.36060  1.0000
  C   C259      1.0  0.75227  0.65879  0.36469  1.0000
  N   N47       1.0  0.76137  0.64743  0.43761  1.0000
  O   O47       1.0  0.77279  0.61121  0.51690  1.0000
  C   C260      1.0  0.74735  0.59276  0.58287  1.0000
  H   H163      1.0  0.73532  0.60671  0.60546  1.0000
  H   H164      1.0  0.75919  0.58856  0.64111  1.0000
  H   H165      1.0  0.72848  0.56843  0.55670  1.0000
  C   C261      1.0  0.89731  0.64519  0.44204  1.0000
  C   C262      1.0  0.91680  0.65831  0.36258  1.0000
  C   C263      1.0  0.85634  0.59628  0.36446  1.0000
  N   N48       1.0  0.86763  0.61645  0.43805  1.0000
  O   O48       1.0  0.90351  0.66361  0.51929  1.0000
  C   C264      1.0  0.92193  0.65641  0.58487  1.0000
  H   H166      1.0  0.90807  0.63030  0.60636  1.0000
  H   H167      1.0  0.92587  0.67208  0.64380  1.0000
  H   H168      1.0  0.94637  0.66218  0.55886  1.0000
