data_image0
_chemical_formula_structural       C2NC3H3OC2NC3H3OC2NC3H3ONCHNCHNCHCNCNCNC18H12CNCNCNC18H12CNCNCNC18H12CNCNCNC18H12NCHNCHNCHC2NC3H3OC2NC3H3OC2NC3H3O
_chemical_formula_sum              "C120 N24 H72 O6"
_cell_length_a       44.7879
_cell_length_b       44.788
_cell_length_c       15.0063
_cell_angle_alpha    90
_cell_angle_beta     90
_cell_angle_gamma    120

_space_group_name_H-M_alt    "P 1"
_space_group_IT_number       1

loop_
  _space_group_symop_operation_xyz
  'x, y, z'

loop_
  _atom_site_type_symbol
  _atom_site_label
  _atom_site_symmetry_multiplicity
  _atom_site_fract_x
  _atom_site_fract_y
  _atom_site_fract_z
  _atom_site_occupancy
  C   C1        1.0  0.24645  0.12331  0.31513  1.0000
  C   C2        1.0  0.17431  0.08883  0.32615  1.0000
  N   N1        1.0  0.19095  0.08336  0.25782  1.0000
  C   C3        1.0  0.22578  0.09923  0.24859  1.0000
  C   C4        1.0  0.23874  0.09264  0.17201  1.0000
  C   C5        1.0  0.25371  0.11809  0.10158  1.0000
  H   H1        1.0  0.25971  0.14375  0.12363  1.0000
  H   H2        1.0  0.23591  0.11065  0.04533  1.0000
  H   H3        1.0  0.27760  0.11962  0.07895  1.0000
  O   O1        1.0  0.22799  0.06246  0.15199  1.0000
  C   C6        1.0  0.86411  0.12306  0.31471  1.0000
  C   C7        1.0  0.89856  0.08536  0.32553  1.0000
  N   N2        1.0  0.90406  0.10752  0.25727  1.0000
  C   C8        1.0  0.88817  0.12648  0.24808  1.0000
  C   C9        1.0  0.89483  0.14628  0.17194  1.0000
  C   C10       1.0  0.86953  0.13497  0.10084  1.0000
  H   H4        1.0  0.84358  0.11647  0.12395  1.0000
  H   H5        1.0  0.87644  0.12289  0.04763  1.0000
  H   H6        1.0  0.86888  0.15723  0.07355  1.0000
  O   O2        1.0  0.92500  0.16502  0.15064  1.0000
  C   C11       1.0  0.86432  0.74096  0.31488  1.0000
  C   C12       1.0  0.90202  0.81311  0.32598  1.0000
  N   N3        1.0  0.87982  0.79648  0.25778  1.0000
  C   C13       1.0  0.86083  0.76165  0.24851  1.0000
  C   C14       1.0  0.84117  0.74868  0.17215  1.0000
  C   C15       1.0  0.85168  0.73392  0.10122  1.0000
  H   H7        1.0  0.87089  0.72730  0.12341  1.0000
  H   H8        1.0  0.86264  0.75212  0.04593  1.0000
  H   H9        1.0  0.82924  0.71041  0.07716  1.0000
  O   O3        1.0  0.82207  0.75977  0.15160  1.0000
  N   N4        1.0  0.57923  0.13375  0.27490  1.0000
  C   C16       1.0  0.54839  0.13167  0.26010  1.0000
  H   H10       1.0  0.54176  0.13408  0.19640  1.0000
  N   N5        1.0  0.85395  0.44522  0.27550  1.0000
  C   C17       1.0  0.85617  0.41647  0.26174  1.0000
  H   H11       1.0  0.85360  0.40718  0.19828  1.0000
  N   N6        1.0  0.54209  0.40867  0.27518  1.0000
  C   C18       1.0  0.57069  0.43972  0.26114  1.0000
  H   H12       1.0  0.58000  0.44645  0.19770  1.0000
  C   C19       1.0  0.97425  0.96029  0.33236  1.0000
  N   N7        1.0  0.00928  0.97882  0.33233  1.0000
  C   C20       1.0  0.02713  0.01387  0.33237  1.0000
  N   N8        1.0  0.00860  0.03037  0.33222  1.0000
  C   C21       1.0  0.97356  0.01318  0.33224  1.0000
  N   N9        1.0  0.95706  0.97815  0.33221  1.0000
  C   C22       1.0  0.06380  0.03257  0.33161  1.0000
  C   C23       1.0  0.08287  0.01688  0.30329  1.0000
  C   C24       1.0  0.11911  0.03554  0.30089  1.0000
  C   C25       1.0  0.13768  0.07033  0.32890  1.0000
  C   C26       1.0  0.11870  0.08599  0.35792  1.0000
  C   C27       1.0  0.08243  0.06755  0.35841  1.0000
  C   C28       1.0  0.95628  0.92363  0.33159  1.0000
  C   C29       1.0  0.97263  0.90499  0.35830  1.0000
  C   C30       1.0  0.95480  0.86872  0.35780  1.0000
  C   C31       1.0  0.92015  0.84974  0.32880  1.0000
  C   C32       1.0  0.90392  0.86832  0.30087  1.0000
  C   C33       1.0  0.92151  0.90456  0.30330  1.0000
  C   C34       1.0  0.95485  0.03114  0.33135  1.0000
  C   C35       1.0  0.91987  0.01479  0.35806  1.0000
  C   C36       1.0  0.90141  0.03261  0.35742  1.0000
  C   C37       1.0  0.91708  0.06725  0.32835  1.0000
  C   C38       1.0  0.95188  0.08347  0.30041  1.0000
  C   C39       1.0  0.97055  0.06590  0.30300  1.0000
  H   H13       1.0  0.96778  0.85636  0.37669  1.0000
  H   H14       1.0  0.99770  0.91760  0.37955  1.0000
  H   H15       1.0  0.87882  0.85560  0.27981  1.0000
  H   H16       1.0  0.90868  0.91685  0.28243  1.0000
  H   H17       1.0  0.90742  0.98972  0.37934  1.0000
  H   H18       1.0  0.87607  0.01962  0.37632  1.0000
  H   H19       1.0  0.99566  0.07873  0.28210  1.0000
  H   H20       1.0  0.96426  0.10858  0.27933  1.0000
  H   H21       1.0  0.06981  0.07999  0.37971  1.0000
  H   H22       1.0  0.13105  0.11132  0.37693  1.0000
  H   H23       1.0  0.13183  0.02316  0.27980  1.0000
  H   H24       1.0  0.07059  0.99177  0.28236  1.0000
  C   C40       1.0  0.44699  0.19642  0.32726  1.0000
  N   N10       1.0  0.41197  0.17958  0.32342  1.0000
  C   C41       1.0  0.39367  0.19643  0.32668  1.0000
  N   N11       1.0  0.41175  0.23144  0.33452  1.0000
  C   C42       1.0  0.44670  0.24951  0.33962  1.0000
  N   N12       1.0  0.46331  0.23122  0.33570  1.0000
  C   C43       1.0  0.35693  0.17814  0.32316  1.0000
  C   C44       1.0  0.33810  0.14208  0.30810  1.0000
  C   C45       1.0  0.30186  0.12403  0.30502  1.0000
  C   C46       1.0  0.28307  0.14138  0.31680  1.0000
  C   C47       1.0  0.30162  0.17722  0.33331  1.0000
  C   C48       1.0  0.33787  0.19529  0.33568  1.0000
  C   C49       1.0  0.46658  0.17930  0.32411  1.0000
  C   C50       1.0  0.45129  0.14315  0.33582  1.0000
  C   C51       1.0  0.47153  0.12707  0.33757  1.0000
  C   C52       1.0  0.50752  0.14671  0.32497  1.0000
  C   C53       1.0  0.52289  0.18262  0.31205  1.0000
  C   C54       1.0  0.50278  0.19856  0.31162  1.0000
  C   C55       1.0  0.46593  0.28598  0.34889  1.0000
  C   C56       1.0  0.49985  0.30205  0.38367  1.0000
  C   C57       1.0  0.52001  0.33804  0.38942  1.0000
  C   C58       1.0  0.50699  0.35933  0.36036  1.0000
  C   C59       1.0  0.47328  0.34364  0.32501  1.0000
  C   C60       1.0  0.45276  0.30740  0.32113  1.0000
  H   H25       1.0  0.45991  0.10111  0.34895  1.0000
  H   H26       1.0  0.42532  0.12824  0.34623  1.0000
  H   H27       1.0  0.54908  0.19770  0.30504  1.0000
  H   H28       1.0  0.51526  0.22472  0.30293  1.0000
  H   H29       1.0  0.51060  0.28776  0.40458  1.0000
  H   H30       1.0  0.54481  0.34856  0.41221  1.0000
  H   H31       1.0  0.42865  0.29687  0.29387  1.0000
  H   H32       1.0  0.46357  0.35849  0.30130  1.0000
  H   H33       1.0  0.35011  0.22126  0.34746  1.0000
  H   H34       1.0  0.28889  0.19066  0.34238  1.0000
  H   H35       1.0  0.28931  0.09790  0.29565  1.0000
  H   H36       1.0  0.35052  0.12836  0.29927  1.0000
  C   C61       1.0  0.79090  0.25040  0.32873  1.0000
  N   N13       1.0  0.80775  0.23224  0.32408  1.0000
  C   C62       1.0  0.79093  0.19708  0.32686  1.0000
  N   N14       1.0  0.75593  0.18011  0.33496  1.0000
  C   C63       1.0  0.73785  0.19695  0.34080  1.0000
  N   N15       1.0  0.75611  0.23186  0.33742  1.0000
  C   C64       1.0  0.80923  0.17864  0.32295  1.0000
  C   C65       1.0  0.84530  0.19591  0.30801  1.0000
  C   C66       1.0  0.86338  0.17775  0.30488  1.0000
  C   C67       1.0  0.84604  0.14161  0.31649  1.0000
  C   C68       1.0  0.81018  0.12427  0.33278  1.0000
  C   C69       1.0  0.79210  0.14242  0.33523  1.0000
  C   C70       1.0  0.80799  0.28714  0.32630  1.0000
  C   C71       1.0  0.84434  0.30799  0.33320  1.0000
  C   C72       1.0  0.86050  0.34431  0.33508  1.0000
  C   C73       1.0  0.84066  0.36068  0.32804  1.0000
  C   C74       1.0  0.80453  0.34018  0.31994  1.0000
  C   C75       1.0  0.78855  0.30412  0.31905  1.0000
  C   C76       1.0  0.70140  0.17967  0.35030  1.0000
  C   C77       1.0  0.68535  0.19736  0.38630  1.0000
  C   C78       1.0  0.64936  0.18154  0.39197  1.0000
  C   C79       1.0  0.62804  0.14743  0.36153  1.0000
  C   C80       1.0  0.64372  0.12958  0.32503  1.0000
  C   C81       1.0  0.67996  0.14525  0.32134  1.0000
  H   H37       1.0  0.88669  0.35866  0.34257  1.0000
  H   H38       1.0  0.85942  0.29692  0.33961  1.0000
  H   H39       1.0  0.78938  0.35132  0.31645  1.0000
  H   H40       1.0  0.76226  0.29050  0.31385  1.0000
  H   H41       1.0  0.69966  0.22228  0.40803  1.0000
  H   H42       1.0  0.63886  0.19576  0.41536  1.0000
  H   H43       1.0  0.69048  0.13182  0.29306  1.0000
  H   H44       1.0  0.62887  0.10520  0.30017  1.0000
  H   H45       1.0  0.76612  0.12867  0.34693  1.0000
  H   H46       1.0  0.79676  0.09810  0.34170  1.0000
  H   H47       1.0  0.88951  0.19136  0.29566  1.0000
  H   H48       1.0  0.85901  0.22206  0.29938  1.0000
  C   C82       1.0  0.73689  0.54041  0.32790  1.0000
  N   N16       1.0  0.75508  0.57542  0.32361  1.0000
  C   C83       1.0  0.79023  0.59374  0.32631  1.0000
  N   N17       1.0  0.80719  0.57567  0.33398  1.0000
  C   C84       1.0  0.79033  0.54073  0.33940  1.0000
  N   N18       1.0  0.75541  0.52413  0.33611  1.0000
  C   C85       1.0  0.80868  0.63048  0.32269  1.0000
  C   C86       1.0  0.79144  0.64931  0.30792  1.0000
  C   C87       1.0  0.80961  0.68554  0.30492  1.0000
  C   C88       1.0  0.84576  0.70434  0.31651  1.0000
  C   C89       1.0  0.86307  0.68579  0.33271  1.0000
  C   C90       1.0  0.84491  0.64955  0.33500  1.0000
  C   C91       1.0  0.70014  0.52079  0.32562  1.0000
  C   C92       1.0  0.67932  0.53632  0.33260  1.0000
  C   C93       1.0  0.64300  0.51619  0.33448  1.0000
  C   C94       1.0  0.62660  0.47998  0.32751  1.0000
  C   C95       1.0  0.64707  0.46431  0.31940  1.0000
  C   C96       1.0  0.68312  0.48436  0.31843  1.0000
  C   C97       1.0  0.80756  0.52149  0.34855  1.0000
  C   C98       1.0  0.78969  0.48752  0.38304  1.0000
  C   C99       1.0  0.80555  0.46739  0.38884  1.0000
  C   C100      1.0  0.83990  0.48049  0.36016  1.0000
  C   C101      1.0  0.85796  0.51424  0.32510  1.0000
  C   C102      1.0  0.84220  0.53472  0.32108  1.0000
  H   H49       1.0  0.62867  0.52806  0.34186  1.0000
  H   H50       1.0  0.69042  0.56248  0.33882  1.0000
  H   H51       1.0  0.63590  0.43802  0.31589  1.0000
  H   H52       1.0  0.69673  0.47167  0.31323  1.0000
  H   H53       1.0  0.76462  0.47673  0.40374  1.0000
  H   H54       1.0  0.79126  0.44257  0.41150  1.0000
  H   H55       1.0  0.85583  0.55889  0.29419  1.0000
  H   H56       1.0  0.88259  0.52402  0.30176  1.0000
  H   H57       1.0  0.85864  0.63731  0.34658  1.0000
  H   H58       1.0  0.88925  0.69852  0.34160  1.0000
  H   H59       1.0  0.79602  0.69809  0.29578  1.0000
  H   H60       1.0  0.76528  0.63688  0.29927  1.0000
  N   N19       1.0  0.22986  0.12907  0.38315  1.0000
  C   C103      1.0  0.19511  0.11323  0.39102  1.0000
  H   H61       1.0  0.18471  0.11853  0.44514  1.0000
  N   N20       1.0  0.85833  0.10068  0.38265  1.0000
  C   C104      1.0  0.87416  0.08174  0.39040  1.0000
  H   H62       1.0  0.86887  0.06606  0.44454  1.0000
  N   N21       1.0  0.88674  0.75753  0.38276  1.0000
  C   C105      1.0  0.90569  0.79228  0.39063  1.0000
  H   H63       1.0  0.92140  0.80266  0.44473  1.0000
  C   C106      1.0  0.59200  0.13429  0.35746  1.0000
  C   C107      1.0  0.52947  0.13277  0.33386  1.0000
  N   N22       1.0  0.54256  0.13404  0.41629  1.0000
  C   C108      1.0  0.57209  0.13331  0.43238  1.0000
  C   C109      1.0  0.58314  0.13592  0.51986  1.0000
  C   C110      1.0  0.58755  0.10880  0.55916  1.0000
  H   H64       1.0  0.56417  0.08382  0.55039  1.0000
  H   H65       1.0  0.59301  0.11305  0.63043  1.0000
  H   H66       1.0  0.60905  0.10797  0.52754  1.0000
  O   O4        1.0  0.58053  0.15621  0.56945  1.0000
  C   C111      1.0  0.85334  0.45784  0.35751  1.0000
  C   C112      1.0  0.85484  0.39660  0.33609  1.0000
  N   N23       1.0  0.85337  0.40875  0.41792  1.0000
  C   C113      1.0  0.85414  0.43908  0.43304  1.0000
  C   C114      1.0  0.85120  0.44778  0.52005  1.0000
  C   C115      1.0  0.87867  0.47924  0.55885  1.0000
  H   H67       1.0  0.90342  0.48022  0.55130  1.0000
  H   H68       1.0  0.87430  0.48097  0.62981  1.0000
  H   H69       1.0  0.88014  0.50166  0.52595  1.0000
  O   O5        1.0  0.83165  0.42486  0.57071  1.0000
  C   C116      1.0  0.52969  0.39541  0.35730  1.0000
  C   C117      1.0  0.59066  0.45827  0.33533  1.0000
  N   N24       1.0  0.57874  0.44466  0.41732  1.0000
  C   C118      1.0  0.54849  0.41504  0.43269  1.0000
  C   C119      1.0  0.54005  0.40352  0.51983  1.0000
  C   C120      1.0  0.50854  0.39894  0.55962  1.0000
  H   H70       1.0  0.50699  0.42240  0.55204  1.0000
  H   H71       1.0  0.50730  0.39308  0.63064  1.0000
  H   H72       1.0  0.48620  0.37765  0.52745  1.0000
  O   O6        1.0  0.56297  0.40591  0.56903  1.0000
