data_image0
_chemical_formula_structural       C3OHC2HOHC3OHC2HOHNCHCHC3H2CNHNCHCHC3H2CNHCHNCNC3HCHNCNC3HC3OHC6O2H2C6O2H2NCHNCHNCHNCHC3H2C3H2C3H2C3H2C3H2C2NC2OH3OHC2NC2OH3C2NC2OH3C2NC2OH3C3OHC6O2H2C6O2H2NCHNCHNCHNCHC3H2C3H2C3H2C3H2C3H2C2NC2OH3OHC2NC2OH3C2NC2OH3C2NC2OH3C6O2H2C6O2H2C6O2H2NCHNCHNCHNCHNCHNCHC3H2C3H2C3H2C3H2C3H2C3H2C2NC2OH3C2NC2OH3C2NC2OH3C2NC2OH3C2NC2OH3C2NC2OH3C6O2H2C6O2H2C6O2H2NCHNCHNCHNCHNCHNCHC3H2C3H2C3H2C3H2C3H2C3H2C2NC2OH3C2NC2OH3C2NC2OH3C2NC2OH3C2NC2OH3C2NC2OH3
_chemical_formula_sum              "C264 O48 H168 N48"
_cell_length_a       46.4835
_cell_length_b       46.4836
_cell_length_c       14.8916
_cell_angle_alpha    90
_cell_angle_beta     90
_cell_angle_gamma    120

_space_group_name_H-M_alt    "P 1"
_space_group_IT_number       1

loop_
  _space_group_symop_operation_xyz
  'x, y, z'

loop_
  _atom_site_type_symbol
  _atom_site_label
  _atom_site_symmetry_multiplicity
  _atom_site_fract_x
  _atom_site_fract_y
  _atom_site_fract_z
  _atom_site_occupancy
  C   C1        1.0  0.02351  0.26331  0.34775  1.0000
  C   C2        1.0  0.04228  0.29886  0.33488  1.0000
  C   C3        1.0  0.07756  0.31712  0.33656  1.0000
  O   O1        1.0  0.02836  0.31733  0.30939  1.0000
  H   H1        1.0  0.02317  0.31290  0.24506  1.0000
  C   C4        1.0  0.07834  0.26497  0.35195  1.0000
  C   C5        1.0  0.04337  0.24792  0.35972  1.0000
  H   H2        1.0  0.03284  0.22352  0.37628  1.0000
  O   O2        1.0  0.07141  0.24049  0.53712  1.0000
  H   H3        1.0  0.07827  0.26424  0.53801  1.0000
  C   C6        1.0  0.02351  0.76331  0.34775  1.0000
  C   C7        1.0  0.04228  0.79886  0.33488  1.0000
  C   C8        1.0  0.07756  0.81712  0.33656  1.0000
  O   O3        1.0  0.02836  0.81732  0.30939  1.0000
  H   H4        1.0  0.02318  0.81290  0.24506  1.0000
  C   C9        1.0  0.07834  0.76497  0.35195  1.0000
  C   C10       1.0  0.04337  0.74792  0.35972  1.0000
  H   H5        1.0  0.03284  0.72352  0.37628  1.0000
  O   O4        1.0  0.07141  0.74048  0.53712  1.0000
  H   H6        1.0  0.07828  0.76424  0.53801  1.0000
  N   N1        1.0  0.11493  0.25554  0.26892  1.0000
  C   C11       1.0  0.11812  0.36649  0.25684  1.0000
  H   H7        1.0  0.11372  0.35395  0.19740  1.0000
  C   C12       1.0  0.09491  0.29962  0.34185  1.0000
  H   H8        1.0  0.12044  0.31251  0.34008  1.0000
  C   C13       1.0  0.09763  0.24926  0.34729  1.0000
  C   C14       1.0  0.11152  0.24194  0.42312  1.0000
  C   C15       1.0  0.10005  0.23763  0.51792  1.0000
  H   H9        1.0  0.12062  0.25503  0.56062  1.0000
  H   H10       1.0  0.09379  0.21260  0.53823  1.0000
  C   C16       1.0  0.09701  0.35212  0.33146  1.0000
  N   N2        1.0  0.10884  0.36839  0.41077  1.0000
  H   H11       1.0  0.12617  0.41557  0.53799  1.0000
  N   N3        1.0  0.11493  0.75554  0.26892  1.0000
  C   C17       1.0  0.11812  0.86649  0.25684  1.0000
  H   H12       1.0  0.11372  0.85395  0.19740  1.0000
  C   C18       1.0  0.09492  0.79962  0.34185  1.0000
  H   H13       1.0  0.12044  0.81251  0.34008  1.0000
  C   C19       1.0  0.09763  0.74926  0.34729  1.0000
  C   C20       1.0  0.11152  0.74194  0.42312  1.0000
  C   C21       1.0  0.10005  0.73763  0.51792  1.0000
  H   H14       1.0  0.12062  0.75503  0.56062  1.0000
  H   H15       1.0  0.09379  0.71260  0.53823  1.0000
  C   C22       1.0  0.09701  0.85212  0.33146  1.0000
  N   N4        1.0  0.10884  0.86840  0.41077  1.0000
  H   H16       1.0  0.12617  0.91557  0.53799  1.0000
  C   C23       1.0  0.14245  0.25308  0.25629  1.0000
  H   H17       1.0  0.15495  0.26114  0.19677  1.0000
  N   N5        1.0  0.14809  0.39402  0.26934  1.0000
  C   C24       1.0  0.15686  0.24647  0.33099  1.0000
  N   N6        1.0  0.14076  0.24219  0.41053  1.0000
  C   C25       1.0  0.15909  0.41143  0.34757  1.0000
  C   C26       1.0  0.13783  0.39766  0.42332  1.0000
  C   C27       1.0  0.14492  0.40923  0.51806  1.0000
  H   H18       1.0  0.14165  0.38868  0.56103  1.0000
  C   C28       1.0  0.14245  0.75308  0.25629  1.0000
  H   H19       1.0  0.15495  0.76114  0.19677  1.0000
  N   N7        1.0  0.14809  0.89402  0.26934  1.0000
  C   C29       1.0  0.15686  0.74647  0.33099  1.0000
  N   N8        1.0  0.14076  0.74219  0.41053  1.0000
  C   C30       1.0  0.15909  0.91143  0.34757  1.0000
  C   C31       1.0  0.13783  0.89766  0.42332  1.0000
  C   C32       1.0  0.14491  0.90922  0.51806  1.0000
  H   H20       1.0  0.14165  0.88868  0.56103  1.0000
  C   C33       1.0  0.48746  0.24382  0.34774  1.0000
  C   C34       1.0  0.43349  0.18993  0.33641  1.0000
  C   C35       1.0  0.46875  0.20829  0.33439  1.0000
  O   O5        1.0  0.48272  0.18995  0.30804  1.0000
  H   H21       1.0  0.48791  0.19461  0.24377  1.0000
  C   C36       1.0  0.26523  0.24540  0.34773  1.0000
  C   C37       1.0  0.31908  0.24524  0.33639  1.0000
  C   C38       1.0  0.30077  0.26219  0.33444  1.0000
  C   C39       1.0  0.24573  0.26196  0.34767  1.0000
  C   C40       1.0  0.21018  0.24513  0.33464  1.0000
  C   C41       1.0  0.19187  0.26209  0.33619  1.0000
  O   O6        1.0  0.31916  0.29455  0.30866  1.0000
  O   O7        1.0  0.19177  0.21276  0.30896  1.0000
  H   H22       1.0  0.31466  0.29522  0.24435  1.0000
  H   H23       1.0  0.19628  0.21205  0.24467  1.0000
  C   C42       1.0  0.26374  0.02171  0.34772  1.0000
  C   C43       1.0  0.26389  0.07572  0.33642  1.0000
  C   C44       1.0  0.24693  0.04045  0.33478  1.0000
  C   C45       1.0  0.24718  0.48567  0.34774  1.0000
  C   C46       1.0  0.26400  0.46695  0.33444  1.0000
  C   C47       1.0  0.24708  0.43168  0.33664  1.0000
  O   O8        1.0  0.21455  0.02650  0.30920  1.0000
  O   O9        1.0  0.29630  0.48090  0.30809  1.0000
  H   H24       1.0  0.21381  0.02130  0.24489  1.0000
  H   H25       1.0  0.29683  0.48606  0.24381  1.0000
  N   N9        1.0  0.25341  0.36118  0.26828  1.0000
  C   C48       1.0  0.25596  0.39119  0.25581  1.0000
  H   H26       1.0  0.24809  0.39581  0.19622  1.0000
  N   N10       1.0  0.39589  0.25136  0.26845  1.0000
  C   C49       1.0  0.36846  0.25398  0.25599  1.0000
  H   H27       1.0  0.35598  0.24609  0.19638  1.0000
  N   N11       1.0  0.25759  0.14624  0.26897  1.0000
  C   C50       1.0  0.25503  0.11621  0.25658  1.0000
  H   H28       1.0  0.26310  0.11174  0.19711  1.0000
  N   N12       1.0  0.36293  0.11314  0.26816  1.0000
  C   C51       1.0  0.39298  0.14055  0.25565  1.0000
  H   H29       1.0  0.39762  0.15302  0.19602  1.0000
  C   C52       1.0  0.46753  0.25913  0.35991  1.0000
  C   C53       1.0  0.43255  0.24198  0.35232  1.0000
  C   C54       1.0  0.41607  0.20736  0.34171  1.0000
  H   H30       1.0  0.47801  0.28354  0.37626  1.0000
  H   H31       1.0  0.39054  0.19440  0.33972  1.0000
  C   C55       1.0  0.24988  0.21016  0.35992  1.0000
  C   C56       1.0  0.26697  0.19228  0.35210  1.0000
  C   C57       1.0  0.30160  0.21038  0.34170  1.0000
  H   H32       1.0  0.22550  0.19628  0.37655  1.0000
  H   H33       1.0  0.31452  0.19777  0.33981  1.0000
  C   C58       1.0  0.20932  0.29694  0.34132  1.0000
  C   C59       1.0  0.24396  0.31506  0.35169  1.0000
  C   C60       1.0  0.26107  0.29721  0.35961  1.0000
  H   H34       1.0  0.19639  0.30953  0.33937  1.0000
  H   H35       1.0  0.28547  0.31112  0.37606  1.0000
  C   C61       1.0  0.29899  0.04161  0.35967  1.0000
  C   C62       1.0  0.31685  0.07658  0.35206  1.0000
  C   C63       1.0  0.29875  0.09311  0.34161  1.0000
  H   H36       1.0  0.31290  0.03110  0.37600  1.0000
  H   H37       1.0  0.31135  0.11864  0.33974  1.0000
  C   C64       1.0  0.21222  0.41427  0.34208  1.0000
  C   C65       1.0  0.19409  0.43078  0.35228  1.0000
  C   C66       1.0  0.21195  0.46575  0.35998  1.0000
  H   H38       1.0  0.19964  0.38874  0.34021  1.0000
  H   H39       1.0  0.19806  0.47625  0.37653  1.0000
  C   C67       1.0  0.25954  0.35004  0.34663  1.0000
  C   C68       1.0  0.26266  0.41230  0.33030  1.0000
  N   N13       1.0  0.26686  0.40033  0.40977  1.0000
  C   C69       1.0  0.26707  0.37132  0.42242  1.0000
  C   C70       1.0  0.27123  0.36415  0.51736  1.0000
  O   O10       1.0  0.26826  0.33263  0.53682  1.0000
  H   H40       1.0  0.25381  0.36740  0.55982  1.0000
  H   H41       1.0  0.29625  0.38288  0.53784  1.0000
  H   H42       1.0  0.24449  0.31578  0.53763  1.0000
  O   O11       1.0  0.17643  0.43782  0.53729  1.0000
  H   H43       1.0  0.19328  0.43090  0.53839  1.0000
  C   C71       1.0  0.41311  0.25752  0.34683  1.0000
  C   C72       1.0  0.35404  0.26078  0.33033  1.0000
  N   N14       1.0  0.37032  0.26510  0.40971  1.0000
  C   C73       1.0  0.39953  0.26530  0.42252  1.0000
  C   C74       1.0  0.41090  0.26959  0.51743  1.0000
  O   O12       1.0  0.43940  0.26655  0.53707  1.0000
  H   H44       1.0  0.39023  0.25230  0.56007  1.0000
  H   H45       1.0  0.41728  0.29468  0.53754  1.0000
  H   H46       1.0  0.43240  0.24276  0.53818  1.0000
  C   C75       1.0  0.25131  0.15727  0.34727  1.0000
  C   C76       1.0  0.24831  0.09514  0.33129  1.0000
  N   N15       1.0  0.24394  0.10703  0.41061  1.0000
  C   C77       1.0  0.24373  0.13605  0.42315  1.0000
  C   C78       1.0  0.23931  0.14319  0.51789  1.0000
  O   O13       1.0  0.24239  0.17477  0.53715  1.0000
  H   H47       1.0  0.25653  0.13982  0.56084  1.0000
  H   H48       1.0  0.21419  0.12452  0.53783  1.0000
  H   H49       1.0  0.26619  0.19154  0.53821  1.0000
  C   C79       1.0  0.35183  0.09598  0.34664  1.0000
  C   C80       1.0  0.41412  0.15495  0.33009  1.0000
  N   N16       1.0  0.40217  0.13881  0.40962  1.0000
  C   C81       1.0  0.37313  0.10962  0.42240  1.0000
  C   C82       1.0  0.36600  0.09831  0.51736  1.0000
  O   O14       1.0  0.33446  0.06979  0.53694  1.0000
  H   H50       1.0  0.36932  0.11899  0.55984  1.0000
  H   H51       1.0  0.38470  0.09196  0.53772  1.0000
  H   H52       1.0  0.31766  0.07677  0.53789  1.0000
  C   C83       1.0  0.48746  0.74382  0.34774  1.0000
  C   C84       1.0  0.43349  0.68993  0.33641  1.0000
  C   C85       1.0  0.46875  0.70829  0.33439  1.0000
  O   O15       1.0  0.48272  0.68995  0.30804  1.0000
  H   H53       1.0  0.48791  0.69461  0.24377  1.0000
  C   C86       1.0  0.26523  0.74540  0.34773  1.0000
  C   C87       1.0  0.31908  0.74524  0.33639  1.0000
  C   C88       1.0  0.30077  0.76219  0.33444  1.0000
  C   C89       1.0  0.24573  0.76196  0.34767  1.0000
  C   C90       1.0  0.21018  0.74513  0.33464  1.0000
  C   C91       1.0  0.19187  0.76209  0.33619  1.0000
  O   O16       1.0  0.31916  0.79455  0.30866  1.0000
  O   O17       1.0  0.19177  0.71276  0.30896  1.0000
  H   H54       1.0  0.31466  0.79522  0.24435  1.0000
  H   H55       1.0  0.19628  0.71205  0.24467  1.0000
  C   C92       1.0  0.26374  0.52171  0.34772  1.0000
  C   C93       1.0  0.26389  0.57572  0.33642  1.0000
  C   C94       1.0  0.24693  0.54045  0.33478  1.0000
  C   C95       1.0  0.24718  0.98566  0.34774  1.0000
  C   C96       1.0  0.26400  0.96695  0.33444  1.0000
  C   C97       1.0  0.24708  0.93168  0.33664  1.0000
  O   O18       1.0  0.21455  0.52650  0.30920  1.0000
  O   O19       1.0  0.29630  0.98090  0.30809  1.0000
  H   H56       1.0  0.21381  0.52130  0.24489  1.0000
  H   H57       1.0  0.29683  0.98606  0.24381  1.0000
  N   N17       1.0  0.25341  0.86118  0.26828  1.0000
  C   C98       1.0  0.25596  0.89119  0.25581  1.0000
  H   H58       1.0  0.24809  0.89581  0.19622  1.0000
  N   N18       1.0  0.39589  0.75137  0.26845  1.0000
  C   C99       1.0  0.36846  0.75397  0.25599  1.0000
  H   H59       1.0  0.35598  0.74609  0.19638  1.0000
  N   N19       1.0  0.25759  0.64624  0.26897  1.0000
  C   C100      1.0  0.25503  0.61621  0.25658  1.0000
  H   H60       1.0  0.26309  0.61174  0.19711  1.0000
  N   N20       1.0  0.36293  0.61314  0.26816  1.0000
  C   C101      1.0  0.39298  0.64055  0.25565  1.0000
  H   H61       1.0  0.39761  0.65302  0.19602  1.0000
  C   C102      1.0  0.46753  0.75913  0.35991  1.0000
  C   C103      1.0  0.43255  0.74198  0.35232  1.0000
  C   C104      1.0  0.41607  0.70736  0.34171  1.0000
  H   H62       1.0  0.47801  0.78354  0.37626  1.0000
  H   H63       1.0  0.39054  0.69440  0.33972  1.0000
  C   C105      1.0  0.24988  0.71017  0.35992  1.0000
  C   C106      1.0  0.26697  0.69228  0.35210  1.0000
  C   C107      1.0  0.30161  0.71038  0.34170  1.0000
  H   H64       1.0  0.22550  0.69629  0.37655  1.0000
  H   H65       1.0  0.31452  0.69777  0.33981  1.0000
  C   C108      1.0  0.20932  0.79694  0.34132  1.0000
  C   C109      1.0  0.24396  0.81506  0.35169  1.0000
  C   C110      1.0  0.26107  0.79721  0.35961  1.0000
  H   H66       1.0  0.19639  0.80953  0.33937  1.0000
  H   H67       1.0  0.28547  0.81112  0.37606  1.0000
  C   C111      1.0  0.29899  0.54161  0.35967  1.0000
  C   C112      1.0  0.31685  0.57658  0.35206  1.0000
  C   C113      1.0  0.29875  0.59311  0.34161  1.0000
  H   H68       1.0  0.31290  0.53110  0.37600  1.0000
  H   H69       1.0  0.31135  0.61864  0.33974  1.0000
  C   C114      1.0  0.21222  0.91427  0.34208  1.0000
  C   C115      1.0  0.19409  0.93078  0.35228  1.0000
  C   C116      1.0  0.21195  0.96575  0.35998  1.0000
  H   H70       1.0  0.19964  0.88874  0.34021  1.0000
  H   H71       1.0  0.19806  0.97625  0.37653  1.0000
  C   C117      1.0  0.25954  0.85004  0.34663  1.0000
  C   C118      1.0  0.26267  0.91230  0.33030  1.0000
  N   N21       1.0  0.26686  0.90033  0.40977  1.0000
  C   C119      1.0  0.26707  0.87131  0.42242  1.0000
  C   C120      1.0  0.27123  0.86415  0.51736  1.0000
  O   O20       1.0  0.26826  0.83263  0.53682  1.0000
  H   H72       1.0  0.25381  0.86740  0.55982  1.0000
  H   H73       1.0  0.29625  0.88288  0.53784  1.0000
  H   H74       1.0  0.24449  0.81578  0.53763  1.0000
  O   O21       1.0  0.17643  0.93782  0.53729  1.0000
  H   H75       1.0  0.19328  0.93090  0.53839  1.0000
  C   C121      1.0  0.41311  0.75752  0.34683  1.0000
  C   C122      1.0  0.35405  0.76078  0.33033  1.0000
  N   N22       1.0  0.37032  0.76510  0.40971  1.0000
  C   C123      1.0  0.39954  0.76530  0.42252  1.0000
  C   C124      1.0  0.41090  0.76959  0.51743  1.0000
  O   O22       1.0  0.43940  0.76655  0.53707  1.0000
  H   H76       1.0  0.39023  0.75230  0.56007  1.0000
  H   H77       1.0  0.41728  0.79468  0.53754  1.0000
  H   H78       1.0  0.43240  0.74276  0.53818  1.0000
  C   C125      1.0  0.25131  0.65728  0.34727  1.0000
  C   C126      1.0  0.24831  0.59514  0.33129  1.0000
  N   N23       1.0  0.24394  0.60703  0.41061  1.0000
  C   C127      1.0  0.24373  0.63605  0.42315  1.0000
  C   C128      1.0  0.23931  0.64319  0.51789  1.0000
  O   O23       1.0  0.24239  0.67477  0.53715  1.0000
  H   H79       1.0  0.25653  0.63982  0.56084  1.0000
  H   H80       1.0  0.21419  0.62452  0.53783  1.0000
  H   H81       1.0  0.26619  0.69154  0.53821  1.0000
  C   C129      1.0  0.35183  0.59598  0.34664  1.0000
  C   C130      1.0  0.41412  0.65495  0.33009  1.0000
  N   N24       1.0  0.40217  0.63881  0.40962  1.0000
  C   C131      1.0  0.37313  0.60962  0.42240  1.0000
  C   C132      1.0  0.36600  0.59830  0.51736  1.0000
  O   O24       1.0  0.33446  0.56979  0.53694  1.0000
  H   H82       1.0  0.36932  0.61899  0.55984  1.0000
  H   H83       1.0  0.38470  0.59196  0.53772  1.0000
  H   H84       1.0  0.31765  0.57677  0.53789  1.0000
  C   C133      1.0  0.98746  0.24382  0.34774  1.0000
  C   C134      1.0  0.93349  0.18993  0.33641  1.0000
  C   C135      1.0  0.96875  0.20829  0.33439  1.0000
  C   C136      1.0  0.52351  0.26331  0.34775  1.0000
  C   C137      1.0  0.54228  0.29886  0.33488  1.0000
  C   C138      1.0  0.57756  0.31712  0.33656  1.0000
  O   O25       1.0  0.98272  0.18995  0.30804  1.0000
  O   O26       1.0  0.52837  0.31733  0.30939  1.0000
  H   H85       1.0  0.98791  0.19461  0.24377  1.0000
  H   H86       1.0  0.52317  0.31290  0.24506  1.0000
  C   C139      1.0  0.76523  0.24540  0.34773  1.0000
  C   C140      1.0  0.81908  0.24524  0.33639  1.0000
  C   C141      1.0  0.80076  0.26219  0.33444  1.0000
  C   C142      1.0  0.74573  0.26196  0.34767  1.0000
  C   C143      1.0  0.71018  0.24513  0.33464  1.0000
  C   C144      1.0  0.69187  0.26209  0.33619  1.0000
  O   O27       1.0  0.81916  0.29455  0.30866  1.0000
  O   O28       1.0  0.69177  0.21276  0.30896  1.0000
  H   H87       1.0  0.81466  0.29522  0.24435  1.0000
  H   H88       1.0  0.69628  0.21205  0.24467  1.0000
  C   C145      1.0  0.76374  0.02171  0.34772  1.0000
  C   C146      1.0  0.76389  0.07572  0.33642  1.0000
  C   C147      1.0  0.74692  0.04045  0.33478  1.0000
  C   C148      1.0  0.74718  0.48567  0.34774  1.0000
  C   C149      1.0  0.76400  0.46695  0.33444  1.0000
  C   C150      1.0  0.74708  0.43168  0.33664  1.0000
  O   O29       1.0  0.71455  0.02650  0.30920  1.0000
  O   O30       1.0  0.79630  0.48090  0.30809  1.0000
  H   H89       1.0  0.71381  0.02130  0.24489  1.0000
  H   H90       1.0  0.79683  0.48606  0.24381  1.0000
  N   N25       1.0  0.61493  0.25554  0.26892  1.0000
  C   C151      1.0  0.64245  0.25308  0.25629  1.0000
  H   H91       1.0  0.65495  0.26114  0.19677  1.0000
  N   N26       1.0  0.75341  0.36118  0.26828  1.0000
  C   C152      1.0  0.75596  0.39119  0.25581  1.0000
  H   H92       1.0  0.74809  0.39581  0.19622  1.0000
  N   N27       1.0  0.64809  0.39402  0.26934  1.0000
  C   C153      1.0  0.61812  0.36649  0.25684  1.0000
  H   H93       1.0  0.61372  0.35395  0.19740  1.0000
  N   N28       1.0  0.89589  0.25136  0.26845  1.0000
  C   C154      1.0  0.86846  0.25398  0.25599  1.0000
  H   H94       1.0  0.85598  0.24609  0.19638  1.0000
  N   N29       1.0  0.75759  0.14624  0.26897  1.0000
  C   C155      1.0  0.75503  0.11621  0.25658  1.0000
  H   H95       1.0  0.76309  0.11174  0.19711  1.0000
  N   N30       1.0  0.86293  0.11314  0.26816  1.0000
  C   C156      1.0  0.89298  0.14055  0.25565  1.0000
  H   H96       1.0  0.89761  0.15302  0.19602  1.0000
  C   C157      1.0  0.96753  0.25913  0.35991  1.0000
  C   C158      1.0  0.93255  0.24198  0.35232  1.0000
  C   C159      1.0  0.91607  0.20736  0.34171  1.0000
  H   H97       1.0  0.97801  0.28354  0.37626  1.0000
  H   H98       1.0  0.89054  0.19440  0.33972  1.0000
  C   C160      1.0  0.59491  0.29962  0.34185  1.0000
  C   C161      1.0  0.57834  0.26497  0.35195  1.0000
  C   C162      1.0  0.54337  0.24792  0.35972  1.0000
  H   H99       1.0  0.62044  0.31251  0.34008  1.0000
  H   H100      1.0  0.53284  0.22352  0.37628  1.0000
  C   C163      1.0  0.74989  0.21016  0.35992  1.0000
  C   C164      1.0  0.76697  0.19228  0.35210  1.0000
  C   C165      1.0  0.80160  0.21038  0.34170  1.0000
  H   H101      1.0  0.72550  0.19628  0.37655  1.0000
  H   H102      1.0  0.81452  0.19777  0.33981  1.0000
  C   C166      1.0  0.70932  0.29694  0.34132  1.0000
  C   C167      1.0  0.74396  0.31506  0.35169  1.0000
  C   C168      1.0  0.76107  0.29721  0.35961  1.0000
  H   H103      1.0  0.69639  0.30953  0.33937  1.0000
  H   H104      1.0  0.78547  0.31112  0.37606  1.0000
  C   C169      1.0  0.79899  0.04161  0.35967  1.0000
  C   C170      1.0  0.81685  0.07658  0.35206  1.0000
  C   C171      1.0  0.79875  0.09311  0.34161  1.0000
  H   H105      1.0  0.81290  0.03110  0.37600  1.0000
  H   H106      1.0  0.81135  0.11864  0.33974  1.0000
  C   C172      1.0  0.71222  0.41427  0.34208  1.0000
  C   C173      1.0  0.69409  0.43078  0.35228  1.0000
  C   C174      1.0  0.71195  0.46575  0.35998  1.0000
  H   H107      1.0  0.69964  0.38874  0.34021  1.0000
  H   H108      1.0  0.69806  0.47625  0.37653  1.0000
  C   C175      1.0  0.59763  0.24926  0.34729  1.0000
  C   C176      1.0  0.65686  0.24647  0.33099  1.0000
  N   N31       1.0  0.64076  0.24219  0.41053  1.0000
  C   C177      1.0  0.61152  0.24194  0.42312  1.0000
  C   C178      1.0  0.60005  0.23763  0.51792  1.0000
  O   O31       1.0  0.57141  0.24049  0.53712  1.0000
  H   H109      1.0  0.62062  0.25503  0.56062  1.0000
  H   H110      1.0  0.59379  0.21260  0.53823  1.0000
  H   H111      1.0  0.57827  0.26424  0.53801  1.0000
  C   C179      1.0  0.75953  0.35004  0.34663  1.0000
  C   C180      1.0  0.76267  0.41230  0.33030  1.0000
  N   N32       1.0  0.76686  0.40033  0.40977  1.0000
  C   C181      1.0  0.76707  0.37132  0.42242  1.0000
  C   C182      1.0  0.77123  0.36415  0.51736  1.0000
  O   O32       1.0  0.76826  0.33263  0.53682  1.0000
  H   H112      1.0  0.75382  0.36740  0.55982  1.0000
  H   H113      1.0  0.79625  0.38288  0.53784  1.0000
  H   H114      1.0  0.74449  0.31578  0.53763  1.0000
  C   C183      1.0  0.65909  0.41143  0.34757  1.0000
  C   C184      1.0  0.59701  0.35212  0.33146  1.0000
  N   N33       1.0  0.60884  0.36839  0.41077  1.0000
  C   C185      1.0  0.63783  0.39766  0.42332  1.0000
  C   C186      1.0  0.64492  0.40923  0.51806  1.0000
  O   O33       1.0  0.67643  0.43782  0.53729  1.0000
  H   H115      1.0  0.64165  0.38868  0.56103  1.0000
  H   H116      1.0  0.62617  0.41557  0.53799  1.0000
  H   H117      1.0  0.69328  0.43090  0.53839  1.0000
  C   C187      1.0  0.91311  0.25752  0.34683  1.0000
  C   C188      1.0  0.85405  0.26078  0.33033  1.0000
  N   N34       1.0  0.87033  0.26510  0.40971  1.0000
  C   C189      1.0  0.89953  0.26530  0.42252  1.0000
  C   C190      1.0  0.91090  0.26959  0.51743  1.0000
  O   O34       1.0  0.93940  0.26655  0.53707  1.0000
  H   H118      1.0  0.89023  0.25230  0.56007  1.0000
  H   H119      1.0  0.91728  0.29468  0.53754  1.0000
  H   H120      1.0  0.93240  0.24276  0.53818  1.0000
  C   C191      1.0  0.75131  0.15727  0.34727  1.0000
  C   C192      1.0  0.74831  0.09514  0.33129  1.0000
  N   N35       1.0  0.74394  0.10703  0.41061  1.0000
  C   C193      1.0  0.74374  0.13605  0.42315  1.0000
  C   C194      1.0  0.73931  0.14319  0.51789  1.0000
  O   O35       1.0  0.74239  0.17477  0.53715  1.0000
  H   H121      1.0  0.75653  0.13982  0.56084  1.0000
  H   H122      1.0  0.71419  0.12452  0.53783  1.0000
  H   H123      1.0  0.76619  0.19154  0.53821  1.0000
  C   C195      1.0  0.85183  0.09598  0.34664  1.0000
  C   C196      1.0  0.91412  0.15495  0.33009  1.0000
  N   N36       1.0  0.90217  0.13881  0.40962  1.0000
  C   C197      1.0  0.87313  0.10962  0.42240  1.0000
  C   C198      1.0  0.86600  0.09831  0.51736  1.0000
  O   O36       1.0  0.83446  0.06979  0.53694  1.0000
  H   H124      1.0  0.86932  0.11899  0.55984  1.0000
  H   H125      1.0  0.88470  0.09196  0.53772  1.0000
  H   H126      1.0  0.81765  0.07677  0.53789  1.0000
  C   C199      1.0  0.98746  0.74382  0.34774  1.0000
  C   C200      1.0  0.93349  0.68993  0.33641  1.0000
  C   C201      1.0  0.96875  0.70829  0.33439  1.0000
  C   C202      1.0  0.52351  0.76331  0.34775  1.0000
  C   C203      1.0  0.54228  0.79886  0.33488  1.0000
  C   C204      1.0  0.57756  0.81712  0.33656  1.0000
  O   O37       1.0  0.98272  0.68995  0.30804  1.0000
  O   O38       1.0  0.52836  0.81732  0.30939  1.0000
  H   H127      1.0  0.98791  0.69461  0.24377  1.0000
  H   H128      1.0  0.52318  0.81290  0.24506  1.0000
  C   C205      1.0  0.76523  0.74540  0.34773  1.0000
  C   C206      1.0  0.81908  0.74524  0.33639  1.0000
  C   C207      1.0  0.80077  0.76219  0.33444  1.0000
  C   C208      1.0  0.74573  0.76196  0.34767  1.0000
  C   C209      1.0  0.71018  0.74513  0.33464  1.0000
  C   C210      1.0  0.69187  0.76209  0.33619  1.0000
  O   O39       1.0  0.81916  0.79455  0.30866  1.0000
  O   O40       1.0  0.69177  0.71276  0.30896  1.0000
  H   H129      1.0  0.81466  0.79522  0.24435  1.0000
  H   H130      1.0  0.69628  0.71205  0.24467  1.0000
  C   C211      1.0  0.76374  0.52171  0.34772  1.0000
  C   C212      1.0  0.76389  0.57572  0.33642  1.0000
  C   C213      1.0  0.74692  0.54045  0.33478  1.0000
  C   C214      1.0  0.74719  0.98566  0.34774  1.0000
  C   C215      1.0  0.76400  0.96695  0.33444  1.0000
  C   C216      1.0  0.74708  0.93168  0.33664  1.0000
  O   O41       1.0  0.71455  0.52650  0.30920  1.0000
  O   O42       1.0  0.79630  0.98090  0.30809  1.0000
  H   H131      1.0  0.71381  0.52130  0.24489  1.0000
  H   H132      1.0  0.79683  0.98606  0.24381  1.0000
  N   N37       1.0  0.61493  0.75554  0.26892  1.0000
  C   C217      1.0  0.64245  0.75308  0.25629  1.0000
  H   H133      1.0  0.65495  0.76114  0.19677  1.0000
  N   N38       1.0  0.75341  0.86118  0.26828  1.0000
  C   C218      1.0  0.75596  0.89119  0.25581  1.0000
  H   H134      1.0  0.74809  0.89581  0.19622  1.0000
  N   N39       1.0  0.64809  0.89402  0.26934  1.0000
  C   C219      1.0  0.61812  0.86649  0.25684  1.0000
  H   H135      1.0  0.61372  0.85395  0.19740  1.0000
  N   N40       1.0  0.89589  0.75137  0.26845  1.0000
  C   C220      1.0  0.86846  0.75397  0.25599  1.0000
  H   H136      1.0  0.85598  0.74609  0.19638  1.0000
  N   N41       1.0  0.75759  0.64624  0.26897  1.0000
  C   C221      1.0  0.75503  0.61621  0.25658  1.0000
  H   H137      1.0  0.76309  0.61174  0.19711  1.0000
  N   N42       1.0  0.86293  0.61314  0.26816  1.0000
  C   C222      1.0  0.89298  0.64055  0.25565  1.0000
  H   H138      1.0  0.89762  0.65302  0.19602  1.0000
  C   C223      1.0  0.96753  0.75913  0.35991  1.0000
  C   C224      1.0  0.93256  0.74198  0.35232  1.0000
  C   C225      1.0  0.91607  0.70736  0.34171  1.0000
  H   H139      1.0  0.97801  0.78354  0.37626  1.0000
  H   H140      1.0  0.89054  0.69440  0.33972  1.0000
  C   C226      1.0  0.59492  0.79962  0.34185  1.0000
  C   C227      1.0  0.57834  0.76497  0.35195  1.0000
  C   C228      1.0  0.54337  0.74792  0.35972  1.0000
  H   H141      1.0  0.62044  0.81251  0.34008  1.0000
  H   H142      1.0  0.53284  0.72352  0.37628  1.0000
  C   C229      1.0  0.74989  0.71017  0.35992  1.0000
  C   C230      1.0  0.76697  0.69228  0.35210  1.0000
  C   C231      1.0  0.80161  0.71038  0.34170  1.0000
  H   H143      1.0  0.72550  0.69629  0.37655  1.0000
  H   H144      1.0  0.81452  0.69777  0.33981  1.0000
  C   C232      1.0  0.70932  0.79694  0.34132  1.0000
  C   C233      1.0  0.74396  0.81506  0.35169  1.0000
  C   C234      1.0  0.76107  0.79721  0.35961  1.0000
  H   H145      1.0  0.69639  0.80953  0.33937  1.0000
  H   H146      1.0  0.78547  0.81112  0.37606  1.0000
  C   C235      1.0  0.79899  0.54161  0.35967  1.0000
  C   C236      1.0  0.81685  0.57658  0.35206  1.0000
  C   C237      1.0  0.79875  0.59311  0.34161  1.0000
  H   H147      1.0  0.81290  0.53110  0.37600  1.0000
  H   H148      1.0  0.81135  0.61864  0.33974  1.0000
  C   C238      1.0  0.71222  0.91427  0.34208  1.0000
  C   C239      1.0  0.69409  0.93078  0.35228  1.0000
  C   C240      1.0  0.71195  0.96575  0.35998  1.0000
  H   H149      1.0  0.69964  0.88874  0.34021  1.0000
  H   H150      1.0  0.69806  0.97625  0.37653  1.0000
  C   C241      1.0  0.59763  0.74926  0.34729  1.0000
  C   C242      1.0  0.65686  0.74647  0.33099  1.0000
  N   N43       1.0  0.64076  0.74219  0.41053  1.0000
  C   C243      1.0  0.61152  0.74194  0.42312  1.0000
  C   C244      1.0  0.60005  0.73763  0.51792  1.0000
  O   O43       1.0  0.57141  0.74048  0.53712  1.0000
  H   H151      1.0  0.62062  0.75503  0.56062  1.0000
  H   H152      1.0  0.59379  0.71260  0.53823  1.0000
  H   H153      1.0  0.57827  0.76424  0.53801  1.0000
  C   C245      1.0  0.75954  0.85004  0.34663  1.0000
  C   C246      1.0  0.76267  0.91230  0.33030  1.0000
  N   N44       1.0  0.76686  0.90033  0.40977  1.0000
  C   C247      1.0  0.76707  0.87131  0.42242  1.0000
  C   C248      1.0  0.77123  0.86415  0.51736  1.0000
  O   O44       1.0  0.76826  0.83263  0.53682  1.0000
  H   H154      1.0  0.75382  0.86740  0.55982  1.0000
  H   H155      1.0  0.79625  0.88288  0.53784  1.0000
  H   H156      1.0  0.74449  0.81578  0.53763  1.0000
  C   C249      1.0  0.65909  0.91143  0.34757  1.0000
  C   C250      1.0  0.59701  0.85212  0.33146  1.0000
  N   N45       1.0  0.60884  0.86840  0.41077  1.0000
  C   C251      1.0  0.63783  0.89766  0.42332  1.0000
  C   C252      1.0  0.64492  0.90922  0.51806  1.0000
  O   O45       1.0  0.67643  0.93782  0.53729  1.0000
  H   H157      1.0  0.64165  0.88868  0.56103  1.0000
  H   H158      1.0  0.62617  0.91557  0.53799  1.0000
  H   H159      1.0  0.69328  0.93090  0.53839  1.0000
  C   C253      1.0  0.91311  0.75752  0.34683  1.0000
  C   C254      1.0  0.85405  0.76078  0.33033  1.0000
  N   N46       1.0  0.87033  0.76510  0.40971  1.0000
  C   C255      1.0  0.89953  0.76530  0.42252  1.0000
  C   C256      1.0  0.91090  0.76959  0.51743  1.0000
  O   O46       1.0  0.93940  0.76655  0.53707  1.0000
  H   H160      1.0  0.89023  0.75230  0.56007  1.0000
  H   H161      1.0  0.91728  0.79468  0.53754  1.0000
  H   H162      1.0  0.93240  0.74276  0.53818  1.0000
  C   C257      1.0  0.75131  0.65728  0.34727  1.0000
  C   C258      1.0  0.74831  0.59514  0.33129  1.0000
  N   N47       1.0  0.74394  0.60703  0.41061  1.0000
  C   C259      1.0  0.74374  0.63605  0.42315  1.0000
  C   C260      1.0  0.73931  0.64319  0.51789  1.0000
  O   O47       1.0  0.74239  0.67477  0.53715  1.0000
  H   H163      1.0  0.75653  0.63982  0.56084  1.0000
  H   H164      1.0  0.71419  0.62452  0.53783  1.0000
  H   H165      1.0  0.76619  0.69154  0.53821  1.0000
  C   C261      1.0  0.85183  0.59598  0.34664  1.0000
  C   C262      1.0  0.91412  0.65495  0.33009  1.0000
  N   N48       1.0  0.90217  0.63881  0.40962  1.0000
  C   C263      1.0  0.87313  0.60962  0.42240  1.0000
  C   C264      1.0  0.86600  0.59830  0.51736  1.0000
  O   O48       1.0  0.83446  0.56979  0.53694  1.0000
  H   H166      1.0  0.86932  0.61899  0.55984  1.0000
  H   H167      1.0  0.88470  0.59196  0.53772  1.0000
  H   H168      1.0  0.81766  0.57677  0.53789  1.0000
