data_image0
_chemical_formula_structural       C3NC3NC5NC5NC36H26C4H4C3HNO2NC3HNO2NC16H16C3HNO2NC3HNO2N
_chemical_formula_sum              "C84 N12 H50 O8"
_cell_length_a       34.4059
_cell_length_b       34.4057
_cell_length_c       14.678
_cell_angle_alpha    90
_cell_angle_beta     90
_cell_angle_gamma    90.1686

_space_group_name_H-M_alt    "P 1"
_space_group_IT_number       1

loop_
  _space_group_symop_operation_xyz
  'x, y, z'

loop_
  _atom_site_type_symbol
  _atom_site_label
  _atom_site_symmetry_multiplicity
  _atom_site_fract_x
  _atom_site_fract_y
  _atom_site_fract_z
  _atom_site_occupancy
  C   C1        1.0  0.11283  0.08428  0.33821  1.0000
  C   C2        1.0  0.08431  0.11248  0.33758  1.0000
  C   C3        1.0  0.04805  0.09408  0.33890  1.0000
  N   N1        1.0  0.05611  0.05543  0.33995  1.0000
  C   C4        1.0  0.09486  0.04780  0.33907  1.0000
  C   C5        1.0  0.11490  0.01152  0.33894  1.0000
  C   C6        1.0  0.09613  0.97458  0.33894  1.0000
  N   N2        1.0  0.05754  0.96668  0.33979  1.0000
  C   C7        1.0  0.05005  0.92800  0.33852  1.0000
  C   C8        1.0  0.08633  0.90991  0.33701  1.0000
  C   C9        1.0  0.11462  0.93850  0.33695  1.0000
  C   C10       1.0  0.01331  0.90882  0.33872  1.0000
  C   C11       1.0  0.97682  0.92840  0.33917  1.0000
  N   N3        1.0  0.96874  0.96705  0.33899  1.0000
  C   C12       1.0  0.92999  0.97465  0.33845  1.0000
  C   C13       1.0  0.91204  0.93815  0.33905  1.0000
  C   C14       1.0  0.94057  0.90996  0.33909  1.0000
  C   C15       1.0  0.90994  0.01091  0.33776  1.0000
  C   C16       1.0  0.92872  0.04785  0.33800  1.0000
  N   N4        1.0  0.96732  0.05577  0.33884  1.0000
  C   C17       1.0  0.97482  0.09446  0.33798  1.0000
  C   C18       1.0  0.93850  0.11252  0.33696  1.0000
  C   C19       1.0  0.91023  0.08393  0.33643  1.0000
  C   C20       1.0  0.01155  0.11368  0.33809  1.0000
  C   C21       1.0  0.01163  0.15541  0.33513  1.0000
  C   C22       1.0  0.00481  0.17526  0.25242  1.0000
  C   C23       1.0  0.00341  0.21620  0.24974  1.0000
  C   C24       1.0  0.00890  0.23903  0.32924  1.0000
  C   C25       1.0  0.00561  0.28077  0.32661  1.0000
  C   C26       1.0  0.99788  0.36448  0.32012  1.0000
  C   C27       1.0  0.97221  0.33964  0.27184  1.0000
  C   C28       1.0  0.97598  0.29891  0.27497  1.0000
  C   C29       1.0  0.86821  0.01024  0.33473  1.0000
  C   C30       1.0  0.84848  0.00284  0.25208  1.0000
  C   C31       1.0  0.80755  0.00121  0.24909  1.0000
  C   C32       1.0  0.78459  0.00708  0.32819  1.0000
  C   C33       1.0  0.74283  0.00383  0.32518  1.0000
  C   C34       1.0  0.72456  0.97405  0.27394  1.0000
  C   C35       1.0  0.68380  0.97039  0.27032  1.0000
  C   C36       1.0  0.65907  0.99631  0.31774  1.0000
  C   C37       1.0  0.01321  0.86712  0.33579  1.0000
  C   C38       1.0  0.01511  0.78349  0.32885  1.0000
  C   C39       1.0  0.01801  0.80644  0.24875  1.0000
  C   C40       1.0  0.01709  0.84738  0.25195  1.0000
  C   C41       1.0  0.01754  0.74168  0.32492  1.0000
  C   C42       1.0  0.04417  0.72323  0.26544  1.0000
  C   C43       1.0  0.04625  0.68248  0.25859  1.0000
  C   C44       1.0  0.02197  0.65791  0.31130  1.0000
  C   C45       1.0  0.15661  0.01214  0.33609  1.0000
  C   C46       1.0  0.17637  0.01837  0.25299  1.0000
  C   C47       1.0  0.21731  0.01954  0.24990  1.0000
  C   C48       1.0  0.24025  0.01445  0.32936  1.0000
  C   C49       1.0  0.28208  0.01689  0.32567  1.0000
  C   C50       1.0  0.36584  0.02126  0.31197  1.0000
  C   C51       1.0  0.34149  0.04725  0.26376  1.0000
  C   C52       1.0  0.30072  0.04519  0.27069  1.0000
  H   H1        1.0  0.35326  0.06809  0.22217  1.0000
  H   H2        1.0  0.28469  0.06503  0.23497  1.0000
  H   H3        1.0  0.23027  0.02375  0.18794  1.0000
  H   H4        1.0  0.16102  0.02224  0.19395  1.0000
  H   H5        1.0  0.14199  0.09005  0.33737  1.0000
  H   H6        1.0  0.08973  0.14169  0.33606  1.0000
  H   H7        1.0  0.03645  0.03555  0.34073  1.0000
  H   H8        1.0  0.98839  0.98694  0.33826  1.0000
  H   H9        1.0  0.14384  0.93332  0.33539  1.0000
  H   H10       1.0  0.09183  0.88074  0.33578  1.0000
  H   H11       1.0  0.01949  0.86273  0.19247  1.0000
  H   H12       1.0  0.02050  0.79349  0.18629  1.0000
  H   H13       1.0  0.93518  0.88073  0.33909  1.0000
  H   H14       1.0  0.88289  0.93235  0.33927  1.0000
  H   H15       1.0  0.93296  0.14168  0.33630  1.0000
  H   H16       1.0  0.88100  0.08912  0.33512  1.0000
  H   H17       1.0  0.86387  0.99828  0.19337  1.0000
  H   H18       1.0  0.79459  0.99596  0.18755  1.0000
  H   H19       1.0  0.67232  0.94820  0.23225  1.0000
  H   H20       1.0  0.74087  0.95401  0.23959  1.0000
  H   H21       1.0  0.95610  0.28250  0.24005  1.0000
  H   H22       1.0  0.95012  0.35101  0.23347  1.0000
  H   H23       1.0  0.99847  0.22925  0.18821  1.0000
  H   H24       1.0  0.00039  0.15996  0.19349  1.0000
  H   H25       1.0  0.06280  0.73940  0.22637  1.0000
  H   H26       1.0  0.06587  0.67088  0.21377  1.0000
  C   C53       1.0  0.99301  0.40487  0.31422  1.0000
  C   C54       1.0  0.61864  0.99156  0.31139  1.0000
  C   C55       1.0  0.02399  0.61761  0.29860  1.0000
  C   C56       1.0  0.40609  0.02319  0.29870  1.0000
  H   H27       1.0  0.97060  0.41477  0.27810  1.0000
  H   H28       1.0  0.41555  0.03674  0.24301  1.0000
  H   H29       1.0  0.03707  0.60814  0.24239  1.0000
  H   H30       1.0  0.60861  0.96940  0.27447  1.0000
  C   C57       1.0  0.01344  0.46926  0.34884  1.0000
  C   C58       1.0  0.01220  0.49067  0.26625  1.0000
  C   C59       1.0  0.01108  0.53185  0.26915  1.0000
  H   H31       1.0  0.00962  0.54668  0.20889  1.0000
  N   N5        1.0  0.01299  0.47053  0.18217  1.0000
  O   O1        1.0  0.98318  0.47746  0.13549  1.0000
  O   O2        1.0  0.04248  0.47950  0.13612  1.0000
  N   N6        1.0  0.01540  0.43030  0.35216  1.0000
  C   C60       1.0  0.55439  0.01182  0.34706  1.0000
  C   C61       1.0  0.53283  0.01089  0.26464  1.0000
  C   C62       1.0  0.49164  0.00987  0.26790  1.0000
  H   H32       1.0  0.47669  0.00866  0.20778  1.0000
  N   N7        1.0  0.55283  0.01189  0.18039  1.0000
  O   O3        1.0  0.54557  0.98224  0.13328  1.0000
  O   O4        1.0  0.54403  0.04153  0.13490  1.0000
  N   N8        1.0  0.59336  0.01368  0.35022  1.0000
  C   C63       1.0  0.01653  0.21883  0.41154  1.0000
  C   C64       1.0  0.01768  0.17783  0.41463  1.0000
  C   C65       1.0  0.03117  0.30558  0.37546  1.0000
  C   C66       1.0  0.02753  0.34648  0.37204  1.0000
  C   C67       1.0  0.80468  0.01516  0.41047  1.0000
  C   C68       1.0  0.84567  0.01657  0.41387  1.0000
  C   C69       1.0  0.67721  0.02610  0.36929  1.0000
  C   C70       1.0  0.71812  0.02964  0.37317  1.0000
  C   C71       1.0  0.00976  0.84466  0.41604  1.0000
  C   C72       1.0  0.01055  0.80365  0.41248  1.0000
  C   C73       1.0  0.99575  0.67610  0.37216  1.0000
  C   C74       1.0  0.99371  0.71706  0.37892  1.0000
  C   C75       1.0  0.17910  0.00657  0.41562  1.0000
  C   C76       1.0  0.22011  0.00757  0.41215  1.0000
  C   C77       1.0  0.30649  0.99131  0.37526  1.0000
  C   C78       1.0  0.34746  0.99334  0.36845  1.0000
  H   H33       1.0  0.36375  0.97354  0.40360  1.0000
  H   H34       1.0  0.29457  0.96990  0.41481  1.0000
  H   H35       1.0  0.23517  0.00432  0.47174  1.0000
  H   H36       1.0  0.16568  0.00207  0.47697  1.0000
  H   H37       1.0  0.00710  0.85809  0.47794  1.0000
  H   H38       1.0  0.00900  0.78861  0.47248  1.0000
  H   H39       1.0  0.85904  0.02183  0.47494  1.0000
  H   H40       1.0  0.78960  0.01893  0.46986  1.0000
  H   H41       1.0  0.72976  0.05200  0.41025  1.0000
  H   H42       1.0  0.66073  0.04571  0.40460  1.0000
  H   H43       1.0  0.02243  0.16436  0.47579  1.0000
  H   H44       1.0  0.01994  0.23382  0.47122  1.0000
  H   H45       1.0  0.04693  0.36304  0.40803  1.0000
  H   H46       1.0  0.05339  0.29404  0.41295  1.0000
  H   H47       1.0  0.97353  0.72881  0.42197  1.0000
  H   H48       1.0  0.97726  0.65966  0.41095  1.0000
  C   C79       1.0  0.01212  0.55275  0.35228  1.0000
  C   C80       1.0  0.01341  0.53122  0.43460  1.0000
  C   C81       1.0  0.01448  0.48997  0.43185  1.0000
  H   H49       1.0  0.01575  0.47486  0.49187  1.0000
  N   N9        1.0  0.01419  0.55161  0.51839  1.0000
  O   O5        1.0  0.04465  0.54448  0.56250  1.0000
  O   O6        1.0  0.98540  0.54299  0.56713  1.0000
  N   N10       1.0  0.01155  0.59189  0.35570  1.0000
  C   C82       1.0  0.47091  0.01068  0.35125  1.0000
  C   C83       1.0  0.49257  0.01165  0.43339  1.0000
  C   C84       1.0  0.53382  0.01264  0.43027  1.0000
  H   H50       1.0  0.54904  0.01369  0.49017  1.0000
  N   N11       1.0  0.47232  0.01222  0.51738  1.0000
  O   O7        1.0  0.47979  0.04252  0.56195  1.0000
  O   O8        1.0  0.48080  0.98325  0.56554  1.0000
  N   N12       1.0  0.43177  0.01020  0.35503  1.0000
