data_image0
_chemical_formula_structural       H2C5NC3NC5NC2NC35H23C21H18C16H16C2H3NC3H3NC3H3NC4H3NC3H3NC3H3NC20H17C3NC3NC2NC5NC34H24C3NC3NC5NC5NC36H26C3H3NC3H3NC2H3NC3H3NC3H3NC2H3N
_chemical_formula_sum              "H162 C240 N24"
_cell_length_a       58.5451
_cell_length_b       58.545
_cell_length_c       14.9665
_cell_angle_alpha    89.7732
_cell_angle_beta     90.2268
_cell_angle_gamma    120

_space_group_name_H-M_alt    "P 1"
_space_group_IT_number       1

loop_
  _space_group_symop_operation_xyz
  'x, y, z'

loop_
  _atom_site_type_symbol
  _atom_site_label
  _atom_site_symmetry_multiplicity
  _atom_site_fract_x
  _atom_site_fract_y
  _atom_site_fract_z
  _atom_site_occupancy
  H   H1        1.0  0.01125  0.64218  0.33403  1.0000
  H   H2        1.0  0.01124  0.46953  0.33616  1.0000
  C   C1        1.0  0.02263  0.63346  0.33427  1.0000
  C   C2        1.0  0.01398  0.60648  0.33387  1.0000
  C   C3        1.0  0.01398  0.50799  0.33509  1.0000
  C   C4        1.0  0.02262  0.48964  0.33544  1.0000
  C   C5        1.0  0.04986  0.64707  0.33551  1.0000
  N   N1        1.0  0.03624  0.60476  0.33427  1.0000
  C   C6        1.0  0.05850  0.62872  0.33512  1.0000
  C   C7        1.0  0.08536  0.63512  0.33568  1.0000
  C   C8        1.0  0.09403  0.61638  0.33485  1.0000
  N   N2        1.0  0.07912  0.58979  0.33421  1.0000
  C   C9        1.0  0.09402  0.57810  0.33328  1.0000
  C   C10       1.0  0.12023  0.59856  0.33344  1.0000
  C   C11       1.0  0.12024  0.62212  0.33418  1.0000
  C   C12       1.0  0.08534  0.55069  0.33282  1.0000
  C   C13       1.0  0.05848  0.53024  0.33377  1.0000
  N   N3        1.0  0.03623  0.53195  0.33423  1.0000
  C   C14       1.0  0.04984  0.50325  0.33415  1.0000
  C   C15       1.0  0.98712  0.50158  0.33572  1.0000
  N   N4        1.0  0.99335  0.54691  0.33434  1.0000
  C   C16       1.0  0.97845  0.55861  0.33337  1.0000
  C   C17       1.0  0.95224  0.53814  0.33348  1.0000
  C   C18       1.0  0.95223  0.51457  0.33422  1.0000
  C   C19       1.0  0.98712  0.58602  0.33292  1.0000
  C   C20       1.0  0.96731  0.59339  0.33141  1.0000
  C   C21       1.0  0.95509  0.59362  0.25017  1.0000
  C   C22       1.0  0.93425  0.59906  0.24940  1.0000
  C   C23       1.0  0.92512  0.60456  0.32951  1.0000
  C   C24       1.0  0.90292  0.60850  0.32937  1.0000
  C   C25       1.0  0.85737  0.59431  0.28405  1.0000
  C   C26       1.0  0.87971  0.59125  0.28159  1.0000
  C   C27       1.0  0.96731  0.47439  0.33734  1.0000
  C   C28       1.0  0.95886  0.45967  0.25747  1.0000
  C   C29       1.0  0.93828  0.43325  0.25869  1.0000
  C   C30       1.0  0.92543  0.42089  0.33946  1.0000
  C   C31       1.0  0.90341  0.39465  0.33961  1.0000
  C   C32       1.0  0.90391  0.37410  0.29169  1.0000
  C   C33       1.0  0.88172  0.34854  0.28933  1.0000
  C   C34       1.0  0.85813  0.34285  0.33336  1.0000
  C   C35       1.0  0.10514  0.54330  0.33137  1.0000
  C   C36       1.0  0.14687  0.53146  0.32944  1.0000
  C   C37       1.0  0.13794  0.53747  0.24944  1.0000
  C   C38       1.0  0.11731  0.54323  0.25022  1.0000
  C   C39       1.0  0.16875  0.52702  0.32926  1.0000
  C   C40       1.0  0.19210  0.54415  0.28211  1.0000
  C   C41       1.0  0.21410  0.54053  0.28439  1.0000
  C   C42       1.0  0.21361  0.51973  0.33433  1.0000
  C   C43       1.0  0.10518  0.66230  0.33737  1.0000
  C   C44       1.0  0.11378  0.67705  0.25740  1.0000
  C   C45       1.0  0.13456  0.70338  0.25860  1.0000
  C   C46       1.0  0.14750  0.71560  0.33945  1.0000
  C   C47       1.0  0.16983  0.74165  0.33956  1.0000
  C   C48       1.0  0.21575  0.79302  0.33309  1.0000
  C   C49       1.0  0.19229  0.78778  0.28848  1.0000
  C   C50       1.0  0.16979  0.76242  0.29094  1.0000
  H   H3        1.0  0.19149  0.80236  0.25310  1.0000
  H   H4        1.0  0.15323  0.75933  0.25730  1.0000
  H   H5        1.0  0.14090  0.71319  0.19906  1.0000
  H   H6        1.0  0.10538  0.66852  0.19754  1.0000
  H   H7        1.0  0.06124  0.66717  0.33617  1.0000
  H   H8        1.0  0.03624  0.58836  0.33379  1.0000
  H   H9        1.0  0.03623  0.54835  0.33378  1.0000
  H   H10       1.0  0.13684  0.64032  0.33416  1.0000
  H   H11       1.0  0.13683  0.59696  0.33319  1.0000
  H   H12       1.0  0.11156  0.54783  0.19137  1.0000
  H   H13       1.0  0.14644  0.53775  0.18950  1.0000
  H   H14       1.0  0.06121  0.49452  0.33387  1.0000
  H   H15       1.0  0.93563  0.49637  0.33411  1.0000
  H   H16       1.0  0.96725  0.46827  0.19767  1.0000
  H   H17       1.0  0.93209  0.42343  0.19922  1.0000
  H   H18       1.0  0.88286  0.33414  0.25448  1.0000
  H   H19       1.0  0.92058  0.37752  0.25848  1.0000
  H   H20       1.0  0.87851  0.57569  0.24666  1.0000
  H   H21       1.0  0.84076  0.58099  0.25039  1.0000
  H   H22       1.0  0.92570  0.59887  0.18942  1.0000
  H   H23       1.0  0.96093  0.58930  0.19128  1.0000
  H   H24       1.0  0.19363  0.55999  0.24766  1.0000
  H   H25       1.0  0.23084  0.55377  0.25120  1.0000
  C   C51       1.0  0.52476  0.61291  0.33602  1.0000
  C   C52       1.0  0.50430  0.61866  0.33614  1.0000
  C   C53       1.0  0.48073  0.59510  0.33683  1.0000
  C   C54       1.0  0.50919  0.45861  0.25288  1.0000
  C   C55       1.0  0.50376  0.43233  0.25207  1.0000
  C   C56       1.0  0.50857  0.36017  0.28660  1.0000
  C   C57       1.0  0.51161  0.38556  0.28423  1.0000
  C   C58       1.0  0.64310  0.59630  0.25961  1.0000
  C   C59       1.0  0.66953  0.60215  0.26051  1.0000
  C   C60       1.0  0.72870  0.62691  0.29286  1.0000
  C   C61       1.0  0.75427  0.63032  0.29013  1.0000
  C   C62       1.0  0.76003  0.61235  0.33392  1.0000
  C   C63       1.0  0.56539  0.69761  0.25215  1.0000
  C   C64       1.0  0.55964  0.67123  0.25294  1.0000
  C   C65       1.0  0.55869  0.74501  0.28484  1.0000
  C   C66       1.0  0.56228  0.77062  0.28714  1.0000
  C   C67       1.0  0.42585  0.53386  0.25961  1.0000
  C   C68       1.0  0.39953  0.52833  0.26052  1.0000
  C   C69       1.0  0.30982  0.51970  0.33372  1.0000
  C   C70       1.0  0.31511  0.50157  0.28940  1.0000
  C   C71       1.0  0.34046  0.50441  0.29227  1.0000
  H   H26       1.0  0.30057  0.48624  0.25393  1.0000
  H   H27       1.0  0.34359  0.49101  0.25880  1.0000
  H   H28       1.0  0.38975  0.52492  0.20089  1.0000
  H   H29       1.0  0.43442  0.53409  0.19986  1.0000
  H   H30       1.0  0.46254  0.59352  0.33676  1.0000
  H   H31       1.0  0.55502  0.66098  0.19411  1.0000
  H   H32       1.0  0.56511  0.70595  0.19221  1.0000
  H   H33       1.0  0.60834  0.66366  0.33652  1.0000
  H   H34       1.0  0.63445  0.59624  0.19993  1.0000
  H   H35       1.0  0.67931  0.60594  0.20094  1.0000
  H   H36       1.0  0.76863  0.64595  0.25520  1.0000
  H   H37       1.0  0.72523  0.64023  0.25985  1.0000
  H   H38       1.0  0.52717  0.40001  0.24933  1.0000
  H   H39       1.0  0.52192  0.35698  0.25304  1.0000
  H   H40       1.0  0.50397  0.42411  0.19208  1.0000
  H   H41       1.0  0.51355  0.46891  0.19402  1.0000
  H   H42       1.0  0.54285  0.73076  0.25037  1.0000
  H   H43       1.0  0.54904  0.77417  0.25391  1.0000
  C   C72       1.0  0.64409  0.14762  0.25402  1.0000
  C   C73       1.0  0.67036  0.16847  0.25271  1.0000
  C   C74       1.0  0.74256  0.24542  0.28570  1.0000
  C   C75       1.0  0.71717  0.22307  0.28383  1.0000
  C   C76       1.0  0.50649  0.14390  0.26210  1.0000
  C   C77       1.0  0.50061  0.16446  0.26309  1.0000
  C   C78       1.0  0.47588  0.19882  0.29561  1.0000
  C   C79       1.0  0.47249  0.22099  0.29289  1.0000
  C   C80       1.0  0.40536  0.96500  0.25276  1.0000
  C   C81       1.0  0.43174  0.98562  0.25409  1.0000
  C   C82       1.0  0.35790  0.91081  0.28430  1.0000
  C   C83       1.0  0.33228  0.88879  0.28605  1.0000
  C   C84       1.0  0.56899  0.98911  0.26206  1.0000
  C   C85       1.0  0.57455  0.96833  0.26303  1.0000
  C   C86       1.0  0.60123  0.91056  0.29205  1.0000
  C   C87       1.0  0.59840  0.93307  0.29489  1.0000
  H   H44       1.0  0.61655  0.91140  0.25662  1.0000
  H   H45       1.0  0.61181  0.94966  0.26141  1.0000
  H   H46       1.0  0.57791  0.96204  0.20341  1.0000
  H   H47       1.0  0.56876  0.99756  0.20228  1.0000
  H   H48       1.0  0.44207  0.99146  0.19544  1.0000
  H   H49       1.0  0.39711  0.95659  0.19264  1.0000
  H   H50       1.0  0.50656  0.13546  0.20240  1.0000
  H   H51       1.0  0.49686  0.17061  0.20353  1.0000
  H   H52       1.0  0.45687  0.21981  0.25796  1.0000
  H   H53       1.0  0.46256  0.18211  0.26258  1.0000
  H   H54       1.0  0.70268  0.22421  0.24911  1.0000
  H   H55       1.0  0.74571  0.26199  0.25192  1.0000
  H   H56       1.0  0.67850  0.17695  0.19254  1.0000
  H   H57       1.0  0.63371  0.14172  0.19534  1.0000
  H   H58       1.0  0.37220  0.90931  0.25014  1.0000
  H   H59       1.0  0.32879  0.87210  0.25276  1.0000
  C   C88       1.0  0.28102  0.51981  0.15751  1.0000
  C   C89       1.0  0.27127  0.51759  0.25002  1.0000
  H   H60       1.0  0.26795  0.50179  0.12105  1.0000
  H   H61       1.0  0.30100  0.52306  0.15444  1.0000
  H   H62       1.0  0.28106  0.53642  0.12393  1.0000
  N   N5        1.0  0.24815  0.51755  0.25900  1.0000
  C   C90       1.0  0.28466  0.51774  0.32952  1.0000
  C   C91       1.0  0.58299  0.85851  0.16018  1.0000
  C   C92       1.0  0.58517  0.85077  0.25270  1.0000
  H   H63       1.0  0.60104  0.86357  0.12384  1.0000
  H   H64       1.0  0.57972  0.87523  0.15711  1.0000
  H   H65       1.0  0.56641  0.84201  0.12649  1.0000
  N   N6        1.0  0.58524  0.82769  0.26168  1.0000
  C   C93       1.0  0.58500  0.86384  0.33219  1.0000
  C   C94       1.0  0.24456  0.82203  0.15746  1.0000
  C   C95       1.0  0.25216  0.83166  0.25014  1.0000
  H   H66       1.0  0.23961  0.83516  0.12106  1.0000
  H   H67       1.0  0.22780  0.80206  0.15403  1.0000
  H   H68       1.0  0.26109  0.82200  0.12407  1.0000
  N   N7        1.0  0.27524  0.85476  0.25960  1.0000
  C   C96       1.0  0.28652  0.86638  0.33864  1.0000
  C   C97       1.0  0.23894  0.81818  0.32936  1.0000
  C   C98       1.0  0.78919  0.61365  0.15780  1.0000
  C   C99       1.0  0.79901  0.61572  0.25039  1.0000
  H   H69       1.0  0.80196  0.63192  0.12191  1.0000
  H   H70       1.0  0.76904  0.60994  0.15460  1.0000
  H   H71       1.0  0.78959  0.59740  0.12372  1.0000
  N   N8        1.0  0.82240  0.61630  0.25943  1.0000
  C   C100      1.0  0.78544  0.61489  0.32985  1.0000
  C   C101      1.0  0.48918  0.27284  0.16046  1.0000
  C   C102      1.0  0.48715  0.28043  0.25304  1.0000
  H   H72       1.0  0.47090  0.26742  0.12463  1.0000
  H   H73       1.0  0.49287  0.25639  0.15728  1.0000
  H   H74       1.0  0.50543  0.28953  0.12631  1.0000
  N   N9        1.0  0.48660  0.30324  0.26202  1.0000
  C   C103      1.0  0.48796  0.26753  0.33252  1.0000
  C   C104      1.0  0.82972  0.31346  0.15776  1.0000
  C   C105      1.0  0.82223  0.30379  0.25052  1.0000
  H   H75       1.0  0.83512  0.30063  0.12211  1.0000
  H   H76       1.0  0.84615  0.33360  0.15420  1.0000
  H   H77       1.0  0.81298  0.31301  0.12369  1.0000
  N   N10       1.0  0.79945  0.28039  0.26000  1.0000
  C   C106      1.0  0.78831  0.26866  0.33906  1.0000
  C   C107      1.0  0.83524  0.31745  0.32973  1.0000
  C   C108      1.0  0.97844  0.52032  0.33495  1.0000
  C   C109      1.0  0.93789  0.60482  0.41042  1.0000
  C   C110      1.0  0.95859  0.59916  0.41154  1.0000
  C   C111      1.0  0.90308  0.62920  0.37851  1.0000
  C   C112      1.0  0.88076  0.63234  0.38064  1.0000
  C   C113      1.0  0.85740  0.61466  0.33469  1.0000
  C   C114      1.0  0.93429  0.43575  0.41932  1.0000
  C   C115      1.0  0.95499  0.46210  0.41846  1.0000
  C   C116      1.0  0.85779  0.36315  0.38313  1.0000
  C   C117      1.0  0.88001  0.38862  0.38595  1.0000
  C   C118      1.0  0.11370  0.53707  0.41141  1.0000
  C   C119      1.0  0.13418  0.53109  0.41028  1.0000
  C   C120      1.0  0.19010  0.50218  0.37966  1.0000
  C   C121      1.0  0.16811  0.50587  0.37765  1.0000
  C   C122      1.0  0.11755  0.67447  0.41856  1.0000
  C   C123      1.0  0.13846  0.70072  0.41942  1.0000
  C   C124      1.0  0.19311  0.74724  0.38642  1.0000
  C   C125      1.0  0.21563  0.77250  0.38356  1.0000
  H   H78       1.0  0.23229  0.77553  0.41647  1.0000
  H   H79       1.0  0.19421  0.73269  0.42094  1.0000
  H   H80       1.0  0.14715  0.70886  0.47934  1.0000
  H   H81       1.0  0.11181  0.66412  0.47733  1.0000
  H   H82       1.0  0.10539  0.53731  0.47122  1.0000
  H   H83       1.0  0.14044  0.52745  0.46982  1.0000
  H   H84       1.0  0.93563  0.53974  0.33316  1.0000
  H   H85       1.0  0.96066  0.47241  0.47717  1.0000
  H   H86       1.0  0.92566  0.42750  0.47921  1.0000
  H   H87       1.0  0.87858  0.40298  0.41997  1.0000
  H   H88       1.0  0.84102  0.35978  0.41567  1.0000
  H   H89       1.0  0.96689  0.59873  0.47142  1.0000
  H   H90       1.0  0.93148  0.60805  0.47004  1.0000
  H   H91       1.0  0.88183  0.64785  0.41544  1.0000
  H   H92       1.0  0.91964  0.64241  0.41259  1.0000
  H   H93       1.0  0.15143  0.49272  0.41120  1.0000
  H   H94       1.0  0.18867  0.48636  0.41386  1.0000
  C   C126      1.0  0.45576  0.49977  0.33812  1.0000
  C   C127      1.0  0.46937  0.48614  0.33695  1.0000
  C   C128      1.0  0.49636  0.50449  0.33661  1.0000
  N   N11       1.0  0.49808  0.52846  0.33703  1.0000
  C   C129      1.0  0.47412  0.52675  0.33777  1.0000
  C   C130      1.0  0.46772  0.54722  0.33829  1.0000
  C   C131      1.0  0.48647  0.57463  0.33753  1.0000
  N   N12       1.0  0.51306  0.58631  0.33695  1.0000
  C   C132      1.0  0.55217  0.63163  0.33559  1.0000
  C   C133      1.0  0.57262  0.62522  0.33650  1.0000
  N   N13       1.0  0.57090  0.60124  0.33695  1.0000
  C   C134      1.0  0.59486  0.60295  0.33773  1.0000
  C   C135      1.0  0.61322  0.62993  0.33803  1.0000
  C   C136      1.0  0.59961  0.64356  0.33682  1.0000
  C   C137      1.0  0.60126  0.58249  0.33830  1.0000
  C   C138      1.0  0.58252  0.55508  0.33759  1.0000
  N   N14       1.0  0.55592  0.54340  0.33708  1.0000
  C   C139      1.0  0.54422  0.51681  0.33614  1.0000
  C   C140      1.0  0.56468  0.51105  0.33618  1.0000
  C   C141      1.0  0.58825  0.53461  0.33683  1.0000
  C   C142      1.0  0.51681  0.49808  0.33570  1.0000
  C   C143      1.0  0.50944  0.47089  0.33415  1.0000
  C   C144      1.0  0.49826  0.41753  0.33216  1.0000
  C   C145      1.0  0.49801  0.42987  0.41309  1.0000
  C   C146      1.0  0.50364  0.45623  0.41425  1.0000
  C   C147      1.0  0.49434  0.39141  0.33197  1.0000
  C   C148      1.0  0.47364  0.37075  0.38106  1.0000
  C   C149      1.0  0.47053  0.34529  0.38320  1.0000
  C   C150      1.0  0.48823  0.33973  0.33728  1.0000
  C   C151      1.0  0.62845  0.58986  0.33963  1.0000
  C   C152      1.0  0.68196  0.60151  0.34110  1.0000
  C   C153      1.0  0.66717  0.59532  0.42113  1.0000
  C   C154      1.0  0.64081  0.58966  0.42057  1.0000
  C   C155      1.0  0.70821  0.60575  0.34092  1.0000
  C   C156      1.0  0.73979  0.59159  0.38382  1.0000
  C   C157      1.0  0.71431  0.58829  0.38697  1.0000
  C   C158      1.0  0.55957  0.65882  0.33411  1.0000
  C   C159      1.0  0.56582  0.67346  0.41413  1.0000
  C   C160      1.0  0.57178  0.69992  0.41299  1.0000
  C   C161      1.0  0.57141  0.71240  0.33215  1.0000
  C   C162      1.0  0.57583  0.73871  0.33197  1.0000
  C   C163      1.0  0.58308  0.79083  0.33703  1.0000
  C   C164      1.0  0.60065  0.78480  0.38237  1.0000
  C   C165      1.0  0.59697  0.75913  0.38034  1.0000
  C   C166      1.0  0.44055  0.53987  0.33972  1.0000
  C   C167      1.0  0.42831  0.53991  0.42076  1.0000
  C   C168      1.0  0.38724  0.52888  0.34120  1.0000
  C   C169      1.0  0.40206  0.53458  0.42132  1.0000
  C   C170      1.0  0.36119  0.52515  0.34100  1.0000
  C   C171      1.0  0.35555  0.54274  0.38759  1.0000
  C   C172      1.0  0.33029  0.54001  0.38432  1.0000
  H   H95       1.0  0.32722  0.55357  0.41707  1.0000
  H   H96       1.0  0.37006  0.55833  0.42220  1.0000
  H   H97       1.0  0.39388  0.53502  0.48112  1.0000
  H   H98       1.0  0.43863  0.54443  0.47961  1.0000
  H   H99       1.0  0.43566  0.49105  0.33870  1.0000
  H   H100      1.0  0.46064  0.46604  0.33667  1.0000
  H   H101      1.0  0.51448  0.54485  0.33661  1.0000
  H   H102      1.0  0.55450  0.58485  0.33657  1.0000
  H   H103      1.0  0.50591  0.63687  0.33589  1.0000
  H   H104      1.0  0.56555  0.66478  0.47396  1.0000
  H   H105      1.0  0.57541  0.70969  0.47253  1.0000
  H   H106      1.0  0.63331  0.63865  0.33871  1.0000
  H   H107      1.0  0.56308  0.49285  0.33584  1.0000
  H   H108      1.0  0.60645  0.53620  0.33666  1.0000
  H   H109      1.0  0.63055  0.58490  0.47939  1.0000
  H   H110      1.0  0.67547  0.59482  0.48088  1.0000
  H   H111      1.0  0.70000  0.57244  0.42119  1.0000
  H   H112      1.0  0.74321  0.57815  0.41626  1.0000
  H   H113      1.0  0.50409  0.46483  0.47415  1.0000
  H   H114      1.0  0.49475  0.42010  0.47268  1.0000
  H   H115      1.0  0.45502  0.33078  0.41797  1.0000
  H   H116      1.0  0.46041  0.37401  0.41513  1.0000
  H   H117      1.0  0.61014  0.75554  0.41388  1.0000
  H   H118      1.0  0.61647  0.79913  0.41652  1.0000
  C   C173      1.0  0.60308  0.05297  0.34025  1.0000
  C   C174      1.0  0.61670  0.08021  0.33890  1.0000
  C   C175      1.0  0.59835  0.08885  0.33860  1.0000
  N   N15       1.0  0.57438  0.06659  0.33921  1.0000
  C   C176      1.0  0.57609  0.04434  0.34002  1.0000
  C   C177      1.0  0.55563  0.01748  0.34064  1.0000
  C   C178      1.0  0.52822  0.00881  0.33979  1.0000
  N   N16       1.0  0.51653  0.02372  0.33912  1.0000
  C   C179      1.0  0.48994  0.00881  0.33802  1.0000
  C   C180      1.0  0.48419  0.98260  0.33810  1.0000
  C   C181      1.0  0.50775  0.98260  0.33899  1.0000
  C   C182      1.0  0.47120  0.01749  0.33747  1.0000
  C   C183      1.0  0.47761  0.04435  0.33858  1.0000
  N   N17       1.0  0.50158  0.06660  0.33922  1.0000
  C   C184      1.0  0.49987  0.08886  0.34006  1.0000
  C   C185      1.0  0.47288  0.08022  0.34033  1.0000
  C   C186      1.0  0.45927  0.05299  0.33890  1.0000
  C   C187      1.0  0.52033  0.11572  0.34067  1.0000
  C   C188      1.0  0.54774  0.12439  0.33985  1.0000
  N   N18       1.0  0.55942  0.10948  0.33926  1.0000
  C   C189      1.0  0.58601  0.12438  0.33814  1.0000
  C   C190      1.0  0.59176  0.15059  0.33814  1.0000
  C   C191      1.0  0.56820  0.15060  0.33898  1.0000
  C   C192      1.0  0.60475  0.11571  0.33755  1.0000
  C   C193      1.0  0.63192  0.13552  0.33554  1.0000
  C   C194      1.0  0.68528  0.17771  0.33253  1.0000
  C   C195      1.0  0.67306  0.16507  0.41373  1.0000
  C   C196      1.0  0.64671  0.14434  0.41539  1.0000
  C   C197      1.0  0.71141  0.19992  0.33182  1.0000
  C   C198      1.0  0.73213  0.19984  0.38064  1.0000
  C   C199      1.0  0.75760  0.22218  0.38221  1.0000
  C   C200      1.0  0.76309  0.24548  0.33603  1.0000
  C   C201      1.0  0.51295  0.13552  0.34208  1.0000
  C   C202      1.0  0.50129  0.17738  0.34371  1.0000
  C   C203      1.0  0.50749  0.16861  0.42369  1.0000
  C   C204      1.0  0.51316  0.14792  0.42306  1.0000
  C   C205      1.0  0.49706  0.19939  0.34360  1.0000
  C   C206      1.0  0.49048  0.24464  0.33664  1.0000
  C   C207      1.0  0.51123  0.24505  0.38657  1.0000
  C   C208      1.0  0.51451  0.22284  0.38969  1.0000
  C   C209      1.0  0.44402  0.99770  0.33551  1.0000
  C   C210      1.0  0.42926  0.98905  0.41527  1.0000
  C   C211      1.0  0.40280  0.96855  0.41360  1.0000
  C   C212      1.0  0.39044  0.95597  0.33248  1.0000
  C   C213      1.0  0.36413  0.93409  0.33174  1.0000
  C   C214      1.0  0.31200  0.88922  0.33571  1.0000
  C   C215      1.0  0.31796  0.91266  0.38129  1.0000
  C   C216      1.0  0.34364  0.93467  0.37982  1.0000
  C   C217      1.0  0.56299  0.99765  0.34213  1.0000
  C   C218      1.0  0.56294  0.98522  0.42320  1.0000
  C   C219      1.0  0.57396  0.95533  0.34374  1.0000
  C   C220      1.0  0.56827  0.96430  0.42382  1.0000
  C   C221      1.0  0.57767  0.93299  0.34358  1.0000
  C   C222      1.0  0.56007  0.90967  0.39022  1.0000
  C   C223      1.0  0.56277  0.88713  0.38691  1.0000
  C   C224      1.0  0.58308  0.88706  0.33637  1.0000
  H   H119      1.0  0.54921  0.87045  0.41971  1.0000
  H   H120      1.0  0.54448  0.90854  0.42478  1.0000
  H   H121      1.0  0.56781  0.95555  0.48364  1.0000
  H   H122      1.0  0.55842  0.99090  0.48203  1.0000
  H   H123      1.0  0.61180  0.04159  0.34085  1.0000
  H   H124      1.0  0.63680  0.09159  0.33850  1.0000
  H   H125      1.0  0.55798  0.06659  0.33886  1.0000
  H   H126      1.0  0.51798  0.06660  0.33879  1.0000
  H   H127      1.0  0.50934  0.96599  0.33890  1.0000
  H   H128      1.0  0.46598  0.96600  0.33773  1.0000
  H   H129      1.0  0.43784  0.99726  0.47527  1.0000
  H   H130      1.0  0.39294  0.96222  0.47295  1.0000
  H   H131      1.0  0.43917  0.04162  0.33844  1.0000
  H   H132      1.0  0.46416  0.09159  0.34092  1.0000
  H   H133      1.0  0.60996  0.16720  0.33767  1.0000
  H   H134      1.0  0.56660  0.16720  0.33880  1.0000
  H   H135      1.0  0.51793  0.14229  0.48185  1.0000
  H   H136      1.0  0.50801  0.17728  0.48346  1.0000
  H   H137      1.0  0.53039  0.22432  0.42374  1.0000
  H   H138      1.0  0.52471  0.26186  0.41884  1.0000
  H   H139      1.0  0.63819  0.13612  0.47546  1.0000
  H   H140      1.0  0.68292  0.17153  0.47315  1.0000
  H   H141      1.0  0.77217  0.22116  0.41678  1.0000
  H   H142      1.0  0.72893  0.18333  0.41485  1.0000
  H   H143      1.0  0.34718  0.95130  0.41356  1.0000
  H   H144      1.0  0.30358  0.91404  0.41529  1.0000
  C   C225      1.0  0.23643  0.51706  0.33779  1.0000
  C   C226      1.0  0.24987  0.51731  0.41721  1.0000
  C   C227      1.0  0.24132  0.51908  0.50859  1.0000
  H   H145      1.0  0.23822  0.53593  0.51338  1.0000
  H   H146      1.0  0.25612  0.52158  0.55824  1.0000
  H   H147      1.0  0.22305  0.50110  0.52502  1.0000
  N   N19       1.0  0.27325  0.51787  0.40834  1.0000
  C   C228      1.0  0.58573  0.81630  0.34050  1.0000
  C   C229      1.0  0.58548  0.82934  0.41993  1.0000
  C   C230      1.0  0.58374  0.81885  0.51130  1.0000
  H   H148      1.0  0.56690  0.79889  0.51613  1.0000
  H   H149      1.0  0.58123  0.83105  0.56095  1.0000
  H   H150      1.0  0.60173  0.81854  0.52771  1.0000
  N   N20       1.0  0.58490  0.85216  0.41103  1.0000
  C   C231      1.0  0.27334  0.85287  0.41780  1.0000
  C   C232      1.0  0.28370  0.86130  0.50939  1.0000
  H   H151      1.0  0.30364  0.86436  0.51448  1.0000
  H   H152      1.0  0.27141  0.84644  0.55875  1.0000
  H   H153      1.0  0.28402  0.87956  0.52598  1.0000
  N   N21       1.0  0.25052  0.82951  0.40843  1.0000
  C   C233      1.0  0.83426  0.61676  0.33826  1.0000
  C   C234      1.0  0.82064  0.61583  0.41764  1.0000
  C   C235      1.0  0.82932  0.61390  0.50896  1.0000
  H   H154      1.0  0.83287  0.59732  0.51319  1.0000
  H   H155      1.0  0.81440  0.61086  0.55850  1.0000
  H   H156      1.0  0.84737  0.63204  0.52601  1.0000
  N   N22       1.0  0.79698  0.61472  0.40869  1.0000
  C   C236      1.0  0.48618  0.31451  0.34083  1.0000
  C   C237      1.0  0.48707  0.30164  0.42025  1.0000
  C   C238      1.0  0.48898  0.31207  0.51156  1.0000
  H   H157      1.0  0.50557  0.33218  0.51581  1.0000
  H   H158      1.0  0.49201  0.30008  0.56112  1.0000
  H   H159      1.0  0.47085  0.31195  0.52858  1.0000
  N   N23       1.0  0.48814  0.27910  0.41135  1.0000
  C   C239      1.0  0.80129  0.28235  0.41820  1.0000
  C   C240      1.0  0.79101  0.27376  0.50972  1.0000
  H   H160      1.0  0.77089  0.27021  0.51430  1.0000
  H   H161      1.0  0.80307  0.28874  0.55900  1.0000
  H   H162      1.0  0.79117  0.25574  0.52686  1.0000
  N   N24       1.0  0.82380  0.30599  0.40880  1.0000
