data_image0
_chemical_formula_structural       CNC2NC4NC18H14C2NC16H12C3NC2NC5NC4NC18H14CNC16H12C11H11CNCNC4NC16H13C3H3CH3C3H3CH3C3H3CH3C3H3CH3C3H3CH3C3H3CH3C3H3CH3C3H3CH3C3H3CH3C3H3CH3C3H3CH3C3H3CH3C7NC12H12C2NC3NC3NC18H14C12H12C3NC3NC3NC18H14C3NC3NC2NC5NC20H15C8NC14H13C5H3CH3C5H3CH3C5H3CH3C5H3CH3C5H3CH3C5H3CH3C5H3CH3C5H3CH3C5H3CH3C5H3CH3C5H3CH3C5H3CH3
_chemical_formula_sum              "C384 N24 H300"
_cell_length_a       57.2703
_cell_length_b       57.2702
_cell_length_c       15.0073
_cell_angle_alpha    90.0018
_cell_angle_beta     89.9654
_cell_angle_gamma    120

_space_group_name_H-M_alt    "P 1"
_space_group_IT_number       1

loop_
  _space_group_symop_operation_xyz
  'x, y, z'

loop_
  _atom_site_type_symbol
  _atom_site_label
  _atom_site_symmetry_multiplicity
  _atom_site_fract_x
  _atom_site_fract_y
  _atom_site_fract_z
  _atom_site_occupancy
  C   C1        1.0  0.28571  0.52899  0.32815  1.0000
  N   N1        1.0  0.27689  0.48724  0.33217  1.0000
  C   C2        1.0  0.30426  0.50241  0.33372  1.0000
  C   C3        1.0  0.32439  0.49459  0.33414  1.0000
  N   N2        1.0  0.29366  0.44450  0.33472  1.0000
  C   C4        1.0  0.29547  0.42180  0.33648  1.0000
  C   C5        1.0  0.32304  0.43070  0.34059  1.0000
  C   C6        1.0  0.33691  0.45836  0.33478  1.0000
  C   C7        1.0  0.27434  0.39435  0.33424  1.0000
  N   N3        1.0  0.23411  0.40135  0.33256  1.0000
  C   C8        1.0  0.20675  0.38617  0.33289  1.0000
  C   C9        1.0  0.22527  0.35957  0.33048  1.0000
  C   C10       1.0  0.21549  0.46695  0.32990  1.0000
  C   C11       1.0  0.23659  0.49437  0.33049  1.0000
  C   C12       1.0  0.22933  0.51514  0.33304  1.0000
  C   C13       1.0  0.21297  0.51731  0.26657  1.0000
  C   C14       1.0  0.20570  0.53741  0.27102  1.0000
  C   C15       1.0  0.21778  0.55868  0.33382  1.0000
  C   C16       1.0  0.14713  0.35314  0.26816  1.0000
  C   C17       1.0  0.11979  0.33299  0.27263  1.0000
  C   C18       1.0  0.28181  0.37378  0.33231  1.0000
  C   C19       1.0  0.29954  0.33484  0.33281  1.0000
  C   C20       1.0  0.30896  0.35575  0.26850  1.0000
  C   C21       1.0  0.29878  0.37352  0.26430  1.0000
  C   C22       1.0  0.35240  0.51543  0.33240  1.0000
  C   C23       1.0  0.36251  0.53493  0.26360  1.0000
  C   C24       1.0  0.38875  0.55723  0.26792  1.0000
  C   C25       1.0  0.40750  0.55895  0.33299  1.0000
  H   H1        1.0  0.39409  0.57220  0.22178  1.0000
  H   H2        1.0  0.35010  0.53427  0.21338  1.0000
  H   H3        1.0  0.28466  0.54622  0.32407  1.0000
  H   H4        1.0  0.26725  0.46789  0.33264  1.0000
  H   H5        1.0  0.24375  0.42071  0.33238  1.0000
  H   H6        1.0  0.35745  0.46962  0.33318  1.0000
  H   H7        1.0  0.33228  0.41943  0.34467  1.0000
  H   H8        1.0  0.30559  0.38771  0.21475  1.0000
  H   H9        1.0  0.32333  0.35823  0.22305  1.0000
  H   H10       1.0  0.22638  0.34235  0.32781  1.0000
  H   H11       1.0  0.15870  0.35239  0.21746  1.0000
  H   H12       1.0  0.11261  0.31790  0.22626  1.0000
  H   H13       1.0  0.19268  0.53725  0.22416  1.0000
  H   H14       1.0  0.20553  0.50370  0.21538  1.0000
  C   C26       1.0  0.53738  0.75661  0.32820  1.0000
  C   C27       1.0  0.56394  0.80173  0.33417  1.0000
  N   N4        1.0  0.62184  0.84904  0.33517  1.0000
  C   C28       1.0  0.64454  0.87355  0.33692  1.0000
  C   C29       1.0  0.63563  0.89222  0.34113  1.0000
  C   C30       1.0  0.60798  0.87843  0.33545  1.0000
  C   C31       1.0  0.67199  0.87988  0.33453  1.0000
  C   C32       1.0  0.68020  0.82049  0.33307  1.0000
  C   C33       1.0  0.70679  0.86562  0.33033  1.0000
  C   C34       1.0  0.59943  0.74843  0.33034  1.0000
  C   C35       1.0  0.54909  0.69555  0.26697  1.0000
  C   C36       1.0  0.52898  0.66818  0.27143  1.0000
  C   C37       1.0  0.71326  0.79390  0.26859  1.0000
  C   C38       1.0  0.73341  0.78671  0.27305  1.0000
  C   C39       1.0  0.69256  0.90792  0.33263  1.0000
  C   C40       1.0  0.71058  0.95310  0.26889  1.0000
  C   C41       1.0  0.69284  0.92516  0.26462  1.0000
  C   C42       1.0  0.53141  0.82742  0.26418  1.0000
  C   C43       1.0  0.50915  0.83142  0.26836  1.0000
  H   H15       1.0  0.49421  0.82182  0.22214  1.0000
  H   H16       1.0  0.53214  0.81573  0.21387  1.0000
  H   H17       1.0  0.52016  0.73831  0.32434  1.0000
  H   H18       1.0  0.59672  0.88770  0.33378  1.0000
  H   H19       1.0  0.64690  0.91273  0.34514  1.0000
  H   H20       1.0  0.67863  0.91777  0.21517  1.0000
  H   H21       1.0  0.70812  0.96500  0.22344  1.0000
  H   H22       1.0  0.72401  0.88395  0.32809  1.0000
  H   H23       1.0  0.71402  0.80619  0.21783  1.0000
  H   H24       1.0  0.74850  0.79460  0.22667  1.0000
  H   H25       1.0  0.52916  0.65532  0.22458  1.0000
  H   H26       1.0  0.56272  0.70171  0.21579  1.0000
  C   C44       1.0  0.28587  0.75672  0.33451  1.0000
  C   C45       1.0  0.30974  0.78068  0.32733  1.0000
  C   C46       1.0  0.30420  0.80182  0.32983  1.0000
  N   N5        1.0  0.27682  0.78949  0.33168  1.0000
  C   C47       1.0  0.26462  0.76212  0.33321  1.0000
  C   C48       1.0  0.23668  0.74199  0.33379  1.0000
  N   N6        1.0  0.21731  0.77271  0.33430  1.0000
  C   C49       1.0  0.19280  0.77090  0.33610  1.0000
  C   C50       1.0  0.17413  0.74333  0.34035  1.0000
  C   C51       1.0  0.18791  0.72945  0.33464  1.0000
  C   C52       1.0  0.18648  0.79202  0.33369  1.0000
  C   C53       1.0  0.20635  0.81998  0.33180  1.0000
  N   N7        1.0  0.23371  0.83227  0.33192  1.0000
  C   C54       1.0  0.24587  0.85961  0.33220  1.0000
  C   C55       1.0  0.22467  0.86508  0.33448  1.0000
  C   C56       1.0  0.20074  0.84108  0.32943  1.0000
  C   C57       1.0  0.27379  0.87958  0.33073  1.0000
  N   N8        1.0  0.29334  0.84894  0.32952  1.0000
  C   C58       1.0  0.31792  0.85090  0.32965  1.0000
  C   C59       1.0  0.32424  0.82979  0.33015  1.0000
  C   C60       1.0  0.35227  0.83705  0.33286  1.0000
  C   C61       1.0  0.37086  0.85346  0.26653  1.0000
  C   C62       1.0  0.39823  0.86071  0.27112  1.0000
  C   C63       1.0  0.40736  0.84859  0.33396  1.0000
  C   C64       1.0  0.28115  0.90759  0.33372  1.0000
  C   C65       1.0  0.27251  0.91928  0.26782  1.0000
  C   C66       1.0  0.27965  0.94661  0.27244  1.0000
  C   C67       1.0  0.29903  0.96428  0.33470  1.0000
  C   C68       1.0  0.15844  0.78456  0.33177  1.0000
  C   C69       1.0  0.10177  0.76680  0.33236  1.0000
  C   C70       1.0  0.11327  0.75738  0.26809  1.0000
  C   C71       1.0  0.14122  0.76757  0.26382  1.0000
  C   C72       1.0  0.22951  0.71398  0.33210  1.0000
  C   C73       1.0  0.23890  0.70388  0.26325  1.0000
  C   C74       1.0  0.23496  0.67763  0.26762  1.0000
  C   C75       1.0  0.21793  0.65888  0.33274  1.0000
  H   H27       1.0  0.24460  0.67231  0.22147  1.0000
  H   H28       1.0  0.25067  0.71631  0.21306  1.0000
  H   H29       1.0  0.32804  0.78174  0.32358  1.0000
  H   H30       1.0  0.26711  0.79913  0.33242  1.0000
  H   H31       1.0  0.24343  0.82263  0.33203  1.0000
  H   H32       1.0  0.17864  0.70893  0.33300  1.0000
  H   H33       1.0  0.15362  0.73409  0.34440  1.0000
  H   H34       1.0  0.14860  0.76075  0.21433  1.0000
  H   H35       1.0  0.10138  0.74300  0.22269  1.0000
  H   H36       1.0  0.18242  0.83997  0.32699  1.0000
  H   H37       1.0  0.26027  0.90776  0.21697  1.0000
  H   H38       1.0  0.27184  0.95384  0.22591  1.0000
  H   H39       1.0  0.41112  0.87377  0.22437  1.0000
  H   H40       1.0  0.36474  0.86094  0.21533  1.0000
  C   C76       1.0  0.78429  0.54178  0.33437  1.0000
  N   N9        1.0  0.79489  0.59969  0.33552  1.0000
  C   C77       1.0  0.79309  0.62239  0.33724  1.0000
  C   C78       1.0  0.76552  0.61349  0.34142  1.0000
  C   C79       1.0  0.75164  0.58584  0.33575  1.0000
  C   C80       1.0  0.81422  0.64984  0.33484  1.0000
  C   C81       1.0  0.88180  0.65801  0.33327  1.0000
  C   C82       1.0  0.86329  0.68462  0.33080  1.0000
  C   C83       1.0  0.87307  0.57724  0.33039  1.0000
  C   C84       1.0  0.87560  0.52689  0.26706  1.0000
  C   C85       1.0  0.88284  0.50676  0.27146  1.0000
  C   C86       1.0  0.94143  0.69104  0.26839  1.0000
  C   C87       1.0  0.96876  0.71122  0.27281  1.0000
  C   C88       1.0  0.80676  0.67041  0.33286  1.0000
  C   C89       1.0  0.77962  0.68841  0.26902  1.0000
  C   C90       1.0  0.78986  0.67070  0.26470  1.0000
  C   C91       1.0  0.72607  0.50927  0.26437  1.0000
  C   C92       1.0  0.69982  0.48698  0.26868  1.0000
  H   H41       1.0  0.69450  0.47203  0.22251  1.0000
  H   H42       1.0  0.73850  0.50995  0.21414  1.0000
  H   H43       1.0  0.80389  0.49797  0.32462  1.0000
  H   H44       1.0  0.73112  0.57458  0.33376  1.0000
  H   H45       1.0  0.75628  0.62477  0.34517  1.0000
  H   H46       1.0  0.78299  0.65645  0.21537  1.0000
  H   H47       1.0  0.76524  0.68592  0.22362  1.0000
  H   H48       1.0  0.86219  0.70185  0.32847  1.0000
  H   H49       1.0  0.92986  0.69178  0.21774  1.0000
  H   H50       1.0  0.97594  0.72627  0.22631  1.0000
  H   H51       1.0  0.89593  0.50697  0.22473  1.0000
  H   H52       1.0  0.88308  0.54052  0.21591  1.0000
  C   C93       1.0  0.44399  0.17061  0.33742  1.0000
  C   C94       1.0  0.45289  0.15194  0.34155  1.0000
  C   C95       1.0  0.48055  0.16572  0.33582  1.0000
  C   C96       1.0  0.53951  0.34862  0.26756  1.0000
  C   C97       1.0  0.55961  0.37600  0.27200  1.0000
  C   C98       1.0  0.37536  0.25029  0.26875  1.0000
  C   C99       1.0  0.35521  0.25747  0.27305  1.0000
  C   C100      1.0  0.37800  0.09113  0.26890  1.0000
  C   C101      1.0  0.39576  0.11907  0.26489  1.0000
  C   C102      1.0  0.55712  0.21672  0.26460  1.0000
  C   C103      1.0  0.57942  0.21277  0.26886  1.0000
  H   H53       1.0  0.59438  0.22241  0.22268  1.0000
  H   H54       1.0  0.55646  0.22848  0.21441  1.0000
  H   H55       1.0  0.56841  0.30584  0.32515  1.0000
  H   H56       1.0  0.49181  0.15645  0.33424  1.0000
  H   H57       1.0  0.40998  0.12650  0.21542  1.0000
  H   H58       1.0  0.38050  0.07927  0.22338  1.0000
  H   H59       1.0  0.36454  0.16025  0.32867  1.0000
  H   H60       1.0  0.37464  0.23798  0.21810  1.0000
  H   H61       1.0  0.34014  0.24957  0.22664  1.0000
  H   H62       1.0  0.55945  0.38886  0.22512  1.0000
  H   H63       1.0  0.52591  0.34246  0.21637  1.0000
  C   C104      1.0  0.77879  0.26350  0.32817  1.0000
  N   N10       1.0  0.81172  0.25469  0.33244  1.0000
  C   C105      1.0  0.82391  0.28206  0.33402  1.0000
  N   N11       1.0  0.87123  0.27148  0.33496  1.0000
  C   C106      1.0  0.89574  0.27329  0.33668  1.0000
  C   C107      1.0  0.91441  0.30086  0.34086  1.0000
  C   C108      1.0  0.90062  0.31473  0.33518  1.0000
  C   C109      1.0  0.90207  0.25216  0.33432  1.0000
  N   N12       1.0  0.85484  0.21192  0.33251  1.0000
  C   C110      1.0  0.84268  0.18457  0.33287  1.0000
  C   C111      1.0  0.88781  0.20311  0.33016  1.0000
  C   C112      1.0  0.77062  0.19328  0.33029  1.0000
  C   C113      1.0  0.76430  0.21438  0.33085  1.0000
  C   C114      1.0  0.71772  0.19074  0.26719  1.0000
  C   C115      1.0  0.69034  0.18347  0.27179  1.0000
  C   C116      1.0  0.68119  0.19560  0.33460  1.0000
  C   C117      1.0  0.81610  0.12493  0.26838  1.0000
  C   C118      1.0  0.80891  0.09759  0.27284  1.0000
  C   C119      1.0  0.93011  0.25964  0.33242  1.0000
  C   C120      1.0  0.98678  0.27738  0.33294  1.0000
  C   C121      1.0  0.97529  0.28680  0.26865  1.0000
  C   C122      1.0  0.94735  0.27660  0.26438  1.0000
  C   C123      1.0  0.85902  0.33020  0.33280  1.0000
  C   C124      1.0  0.84961  0.34031  0.26407  1.0000
  C   C125      1.0  0.85361  0.36657  0.26830  1.0000
  H   H64       1.0  0.84400  0.37191  0.22213  1.0000
  H   H65       1.0  0.83792  0.32790  0.21376  1.0000
  H   H66       1.0  0.76049  0.26243  0.32436  1.0000
  H   H67       1.0  0.82144  0.24505  0.33308  1.0000
  H   H68       1.0  0.90989  0.33526  0.33348  1.0000
  H   H69       1.0  0.93491  0.31010  0.34485  1.0000
  H   H70       1.0  0.93997  0.28343  0.21492  1.0000
  H   H71       1.0  0.98720  0.30117  0.22318  1.0000
  H   H72       1.0  0.90614  0.20422  0.32793  1.0000
  H   H73       1.0  0.82839  0.13648  0.21763  1.0000
  H   H74       1.0  0.81680  0.09039  0.22645  1.0000
  H   H75       1.0  0.67747  0.17044  0.22500  1.0000
  H   H76       1.0  0.72386  0.18328  0.21595  1.0000
  C   C126      1.0  0.21525  0.59560  0.25117  1.0000
  C   C127      1.0  0.20977  0.61728  0.25355  1.0000
  C   C128      1.0  0.22411  0.58965  0.16423  1.0000
  H   H77       1.0  0.23670  0.58053  0.17301  1.0000
  H   H78       1.0  0.23657  0.60814  0.12672  1.0000
  H   H79       1.0  0.20659  0.57633  0.12390  1.0000
  C   C129      1.0  0.19906  0.62359  0.17135  1.0000
  H   H80       1.0  0.18967  0.63570  0.18563  1.0000
  H   H81       1.0  0.18340  0.60494  0.14121  1.0000
  H   H82       1.0  0.21505  0.63431  0.12252  1.0000
  C   C130      1.0  0.47078  0.61957  0.25150  1.0000
  C   C131      1.0  0.44911  0.59241  0.25384  1.0000
  C   C132      1.0  0.47678  0.63439  0.16456  1.0000
  H   H83       1.0  0.48592  0.65610  0.17333  1.0000
  H   H84       1.0  0.45832  0.62838  0.12702  1.0000
  H   H85       1.0  0.49011  0.63017  0.12425  1.0000
  C   C133      1.0  0.44283  0.57541  0.17160  1.0000
  H   H86       1.0  0.43071  0.55390  0.18585  1.0000
  H   H87       1.0  0.46149  0.57840  0.14148  1.0000
  H   H88       1.0  0.43213  0.58069  0.12279  1.0000
  C   C134      1.0  0.44687  0.85116  0.25156  1.0000
  C   C135      1.0  0.47403  0.85665  0.25408  1.0000
  C   C136      1.0  0.43213  0.84234  0.16455  1.0000
  H   H89       1.0  0.41041  0.82975  0.17321  1.0000
  H   H90       1.0  0.43817  0.82988  0.12710  1.0000
  H   H91       1.0  0.43636  0.85987  0.12420  1.0000
  C   C137      1.0  0.49111  0.86739  0.17195  1.0000
  H   H92       1.0  0.51260  0.87678  0.18633  1.0000
  H   H93       1.0  0.48815  0.88308  0.14182  1.0000
  H   H94       1.0  0.48587  0.85143  0.12309  1.0000
  C   C138      1.0  0.87335  0.44859  0.25174  1.0000
  C   C139      1.0  0.87883  0.42692  0.25416  1.0000
  C   C140      1.0  0.86452  0.45455  0.16477  1.0000
  H   H95       1.0  0.85191  0.46364  0.17353  1.0000
  H   H96       1.0  0.85211  0.43607  0.12722  1.0000
  H   H97       1.0  0.88207  0.46790  0.12449  1.0000
  C   C141      1.0  0.88958  0.42062  0.17199  1.0000
  H   H98       1.0  0.89897  0.40851  0.18631  1.0000
  H   H99       1.0  0.90525  0.43927  0.14184  1.0000
  H   H100      1.0  0.87361  0.40990  0.12316  1.0000
  C   C142      1.0  0.61780  0.42466  0.25216  1.0000
  C   C143      1.0  0.63947  0.45182  0.25454  1.0000
  C   C144      1.0  0.61187  0.40986  0.16523  1.0000
  H   H101      1.0  0.60274  0.38815  0.17401  1.0000
  H   H102      1.0  0.63036  0.41589  0.12774  1.0000
  H   H103      1.0  0.59855  0.41407  0.12487  1.0000
  C   C145      1.0  0.64579  0.46885  0.17233  1.0000
  H   H104      1.0  0.65790  0.49035  0.18661  1.0000
  H   H105      1.0  0.62715  0.46587  0.14218  1.0000
  H   H106      1.0  0.65652  0.46358  0.12352  1.0000
  C   C146      1.0  0.64174  0.19308  0.25213  1.0000
  C   C147      1.0  0.61457  0.18758  0.25459  1.0000
  C   C148      1.0  0.65653  0.20191  0.16513  1.0000
  H   H107      1.0  0.67824  0.21447  0.17382  1.0000
  H   H108      1.0  0.65052  0.21438  0.12768  1.0000
  H   H109      1.0  0.65230  0.18437  0.12479  1.0000
  C   C149      1.0  0.59755  0.17686  0.17243  1.0000
  H   H110      1.0  0.57605  0.16747  0.18676  1.0000
  H   H111      1.0  0.60053  0.16119  0.14228  1.0000
  H   H112      1.0  0.60282  0.19284  0.12360  1.0000
  C   C150      1.0  0.05819  0.31045  0.25174  1.0000
  C   C151      1.0  0.02999  0.29168  0.25392  1.0000
  C   C152      1.0  0.07032  0.32414  0.16493  1.0000
  H   H113      1.0  0.08808  0.34395  0.17394  1.0000
  H   H114      1.0  0.05624  0.32785  0.12703  1.0000
  H   H115      1.0  0.07570  0.31163  0.12487  1.0000
  C   C153      1.0  0.01646  0.27589  0.17144  1.0000
  H   H116      1.0  0.99700  0.25809  0.18554  1.0000
  H   H117      1.0  0.02886  0.26854  0.14078  1.0000
  H   H118      1.0  0.01338  0.28832  0.12313  1.0000
  C   C154      1.0  0.75593  0.74764  0.25216  1.0000
  C   C155      1.0  0.77471  0.73821  0.25429  1.0000
  C   C156      1.0  0.74225  0.74606  0.16538  1.0000
  H   H119      1.0  0.72244  0.74402  0.17443  1.0000
  H   H120      1.0  0.73855  0.72827  0.12750  1.0000
  H   H121      1.0  0.75477  0.76395  0.12527  1.0000
  C   C157      1.0  0.79050  0.74046  0.17178  1.0000
  H   H122      1.0  0.80831  0.73881  0.18584  1.0000
  H   H123      1.0  0.79785  0.76021  0.14107  1.0000
  H   H124      1.0  0.77808  0.72494  0.12351  1.0000
  C   C158      1.0  0.31877  0.00822  0.25168  1.0000
  C   C159      1.0  0.32820  0.03642  0.25392  1.0000
  C   C160      1.0  0.32039  0.99613  0.16487  1.0000
  H   H125      1.0  0.32237  0.97833  0.17383  1.0000
  H   H126      1.0  0.33823  0.01022  0.12714  1.0000
  H   H127      1.0  0.30255  0.99083  0.12466  1.0000
  C   C161      1.0  0.32600  0.04999  0.17143  1.0000
  H   H128      1.0  0.32767  0.06945  0.18554  1.0000
  H   H129      1.0  0.30627  0.03762  0.14070  1.0000
  H   H130      1.0  0.34154  0.05308  0.12317  1.0000
  C   C162      1.0  0.03035  0.73370  0.25154  1.0000
  C   C163      1.0  0.05855  0.75247  0.25353  1.0000
  C   C164      1.0  0.01819  0.72001  0.16481  1.0000
  H   H131      1.0  0.00042  0.70020  0.17392  1.0000
  H   H132      1.0  0.03226  0.71629  0.12680  1.0000
  H   H133      1.0  0.01282  0.73253  0.12479  1.0000
  C   C165      1.0  0.07208  0.76823  0.17094  1.0000
  H   H134      1.0  0.09154  0.78604  0.18490  1.0000
  H   H135      1.0  0.05968  0.77558  0.14028  1.0000
  H   H136      1.0  0.07514  0.75578  0.12268  1.0000
  C   C166      1.0  0.33266  0.29653  0.25189  1.0000
  C   C167      1.0  0.31389  0.30596  0.25394  1.0000
  C   C168      1.0  0.34638  0.29809  0.16515  1.0000
  H   H137      1.0  0.36620  0.30015  0.17424  1.0000
  H   H138      1.0  0.35009  0.31587  0.12716  1.0000
  H   H139      1.0  0.33389  0.28020  0.12511  1.0000
  C   C169      1.0  0.29813  0.30370  0.17138  1.0000
  H   H140      1.0  0.28032  0.30535  0.18540  1.0000
  H   H141      1.0  0.29079  0.28396  0.14075  1.0000
  H   H142      1.0  0.31058  0.31922  0.12309  1.0000
  C   C170      1.0  0.76984  0.03599  0.25199  1.0000
  C   C171      1.0  0.76041  0.00779  0.25415  1.0000
  C   C172      1.0  0.76828  0.04811  0.16519  1.0000
  H   H143      1.0  0.76624  0.06588  0.17421  1.0000
  H   H144      1.0  0.75049  0.03402  0.12732  1.0000
  H   H145      1.0  0.78616  0.05347  0.12509  1.0000
  C   C173      1.0  0.76267  0.99425  0.17166  1.0000
  H   H146      1.0  0.76100  0.97479  0.18575  1.0000
  H   H147      1.0  0.78242  0.00664  0.14098  1.0000
  H   H148      1.0  0.74716  0.99117  0.12336  1.0000
  C   C174      1.0  0.30967  0.52906  0.33510  1.0000
  C   C175      1.0  0.26456  0.50230  0.33036  1.0000
  C   C176      1.0  0.31819  0.46721  0.33476  1.0000
  C   C177      1.0  0.24638  0.38627  0.33255  1.0000
  C   C178      1.0  0.20128  0.35951  0.33544  1.0000
  C   C179      1.0  0.18679  0.39413  0.33115  1.0000
  C   C180      1.0  0.19299  0.42154  0.32838  1.0000
  N   N13       1.0  0.21744  0.44432  0.32991  1.0000
  C   C181      1.0  0.18789  0.45797  0.33009  1.0000
  C   C182      1.0  0.17422  0.43032  0.32414  1.0000
  C   C183      1.0  0.23493  0.55691  0.39827  1.0000
  C   C184      1.0  0.23889  0.53462  0.40190  1.0000
  C   C185      1.0  0.15878  0.37349  0.33404  1.0000
  C   C186      1.0  0.10208  0.33468  0.33485  1.0000
  C   C187      1.0  0.11374  0.35569  0.39875  1.0000
  C   C188      1.0  0.14171  0.37337  0.40240  1.0000
  C   C189      1.0  0.27312  0.35358  0.39879  1.0000
  C   C190      1.0  0.28020  0.33335  0.39493  1.0000
  C   C191      1.0  0.37073  0.51757  0.39957  1.0000
  C   C192      1.0  0.39812  0.53768  0.39584  1.0000
  H   H149      1.0  0.41084  0.53745  0.44310  1.0000
  H   H150      1.0  0.36442  0.50392  0.45065  1.0000
  H   H151      1.0  0.32791  0.54636  0.33877  1.0000
  H   H152      1.0  0.26078  0.35294  0.44927  1.0000
  H   H153      1.0  0.27227  0.31836  0.44165  1.0000
  H   H154      1.0  0.18299  0.34223  0.33785  1.0000
  H   H155      1.0  0.17853  0.46914  0.33179  1.0000
  H   H156      1.0  0.15372  0.41897  0.32050  1.0000
  H   H157      1.0  0.14920  0.38771  0.45146  1.0000
  H   H158      1.0  0.10195  0.35832  0.44420  1.0000
  H   H159      1.0  0.25074  0.53392  0.45168  1.0000
  H   H160      1.0  0.24469  0.57187  0.44431  1.0000
  C   C193      1.0  0.53730  0.78048  0.33561  1.0000
  C   C194      1.0  0.56407  0.76215  0.33065  1.0000
  N   N14       1.0  0.57912  0.78953  0.33257  1.0000
  C   C195      1.0  0.57175  0.82967  0.33468  1.0000
  C   C196      1.0  0.59913  0.85086  0.33533  1.0000
  C   C197      1.0  0.68008  0.86001  0.33266  1.0000
  N   N15       1.0  0.66501  0.83265  0.33272  1.0000
  C   C198      1.0  0.70685  0.84169  0.33546  1.0000
  C   C199      1.0  0.67224  0.79257  0.33154  1.0000
  C   C200      1.0  0.64484  0.77135  0.32890  1.0000
  N   N16       1.0  0.62206  0.77302  0.33033  1.0000
  C   C201      1.0  0.60841  0.72981  0.33047  1.0000
  C   C202      1.0  0.63606  0.74380  0.32491  1.0000
  C   C203      1.0  0.57201  0.74211  0.33085  1.0000
  C   C204      1.0  0.55124  0.71408  0.33342  1.0000
  C   C205      1.0  0.50768  0.65901  0.33417  1.0000
  C   C206      1.0  0.50944  0.67793  0.39860  1.0000
  C   C207      1.0  0.53176  0.70417  0.40235  1.0000
  C   C208      1.0  0.69289  0.78521  0.33447  1.0000
  C   C209      1.0  0.73171  0.76732  0.33532  1.0000
  C   C210      1.0  0.71069  0.75799  0.39925  1.0000
  C   C211      1.0  0.69300  0.76826  0.40284  1.0000
  C   C212      1.0  0.71274  0.91942  0.39908  1.0000
  C   C213      1.0  0.73295  0.94675  0.39531  1.0000
  C   C214      1.0  0.73149  0.96459  0.33316  1.0000
  C   C215      1.0  0.55090  0.83683  0.33296  1.0000
  C   C216      1.0  0.54874  0.85302  0.40013  1.0000
  C   C217      1.0  0.50740  0.84844  0.33343  1.0000
  C   C218      1.0  0.52863  0.86031  0.39638  1.0000
  H   H161      1.0  0.52886  0.87327  0.44359  1.0000
  H   H162      1.0  0.56237  0.86037  0.45123  1.0000
  H   H163      1.0  0.51999  0.78141  0.33909  1.0000
  H   H164      1.0  0.59847  0.79924  0.33324  1.0000
  H   H165      1.0  0.64565  0.82293  0.33274  1.0000
  H   H166      1.0  0.71337  0.90773  0.44955  1.0000
  H   H167      1.0  0.74796  0.95380  0.44190  1.0000
  H   H168      1.0  0.72413  0.84069  0.33816  1.0000
  H   H169      1.0  0.59724  0.70928  0.33234  1.0000
  H   H170      1.0  0.64742  0.73465  0.32102  1.0000
  H   H171      1.0  0.67868  0.76145  0.45199  1.0000
  H   H172      1.0  0.70805  0.74357  0.44473  1.0000
  H   H173      1.0  0.53240  0.71675  0.45195  1.0000
  H   H174      1.0  0.49445  0.67275  0.44456  1.0000
  C   C219      1.0  0.21548  0.74818  0.33448  1.0000
  C   C220      1.0  0.29501  0.87339  0.32816  1.0000
  C   C221      1.0  0.33655  0.87849  0.32986  1.0000
  C   C222      1.0  0.32256  0.89217  0.32432  1.0000
  C   C223      1.0  0.38838  0.83141  0.39830  1.0000
  C   C224      1.0  0.36212  0.82745  0.40178  1.0000
  C   C225      1.0  0.30832  0.95257  0.39862  1.0000
  C   C226      1.0  0.29800  0.92460  0.40229  1.0000
  C   C227      1.0  0.14692  0.79326  0.39818  1.0000
  C   C228      1.0  0.11960  0.78616  0.39439  1.0000
  C   C229      1.0  0.21332  0.69564  0.39931  1.0000
  C   C230      1.0  0.20606  0.66826  0.39567  1.0000
  H   H175      1.0  0.19305  0.65551  0.44284  1.0000
  H   H176      1.0  0.20596  0.70194  0.45040  1.0000
  H   H177      1.0  0.28493  0.73848  0.33824  1.0000
  H   H178      1.0  0.15859  0.80557  0.44867  1.0000
  H   H179      1.0  0.11252  0.79406  0.44111  1.0000
  H   H180      1.0  0.22567  0.88336  0.33708  1.0000
  H   H181      1.0  0.35708  0.88786  0.33192  1.0000
  H   H182      1.0  0.33171  0.91268  0.32055  1.0000
  H   H183      1.0  0.30486  0.91710  0.45127  1.0000
  H   H184      1.0  0.32274  0.96434  0.44410  1.0000
  H   H185      1.0  0.34951  0.81554  0.45140  1.0000
  H   H186      1.0  0.39353  0.82160  0.44433  1.0000
  C   C231      1.0  0.77888  0.51513  0.33577  1.0000
  C   C232      1.0  0.80284  0.51521  0.32853  1.0000
  C   C233      1.0  0.82399  0.54189  0.33086  1.0000
  N   N17       1.0  0.81167  0.55695  0.33277  1.0000
  C   C234      1.0  0.76416  0.54960  0.33489  1.0000
  C   C235      1.0  0.77036  0.57699  0.33560  1.0000
  C   C236      1.0  0.84218  0.65791  0.33301  1.0000
  N   N18       1.0  0.85445  0.64283  0.33298  1.0000
  C   C237      1.0  0.88728  0.68467  0.33577  1.0000
  C   C238      1.0  0.90177  0.65005  0.33156  1.0000
  C   C239      1.0  0.89557  0.62264  0.32883  1.0000
  N   N19       1.0  0.87112  0.59987  0.33034  1.0000
  C   C240      1.0  0.90066  0.58620  0.33047  1.0000
  C   C241      1.0  0.91434  0.61386  0.32471  1.0000
  C   C242      1.0  0.85196  0.54981  0.33098  1.0000
  C   C243      1.0  0.85921  0.52904  0.33352  1.0000
  C   C244      1.0  0.87076  0.48550  0.33432  1.0000
  C   C245      1.0  0.85359  0.48726  0.39877  1.0000
  C   C246      1.0  0.84963  0.50955  0.40240  1.0000
  C   C247      1.0  0.92977  0.67069  0.33436  1.0000
  C   C248      1.0  0.98647  0.70952  0.33491  1.0000
  C   C249      1.0  0.97481  0.68852  0.39890  1.0000
  C   C250      1.0  0.94684  0.67083  0.40268  1.0000
  C   C251      1.0  0.81542  0.69060  0.39931  1.0000
  C   C252      1.0  0.80834  0.71084  0.39537  1.0000
  C   C253      1.0  0.78901  0.70932  0.33328  1.0000
  C   C254      1.0  0.73615  0.52876  0.33318  1.0000
  C   C255      1.0  0.71780  0.52661  0.40036  1.0000
  C   C256      1.0  0.68105  0.48524  0.33376  1.0000
  C   C257      1.0  0.69042  0.50649  0.39667  1.0000
  H   H187      1.0  0.67766  0.50674  0.44380  1.0000
  H   H188      1.0  0.72408  0.54027  0.45140  1.0000
  H   H189      1.0  0.76064  0.49783  0.33942  1.0000
  H   H190      1.0  0.82130  0.57630  0.33331  1.0000
  H   H191      1.0  0.84481  0.62348  0.33286  1.0000
  H   H192      1.0  0.82773  0.69124  0.44981  1.0000
  H   H193      1.0  0.81624  0.72582  0.44209  1.0000
  H   H194      1.0  0.90556  0.70195  0.33838  1.0000
  H   H195      1.0  0.91002  0.57503  0.33257  1.0000
  H   H196      1.0  0.93485  0.62521  0.32120  1.0000
  H   H197      1.0  0.93935  0.65651  0.45179  1.0000
  H   H198      1.0  0.98660  0.68589  0.44429  1.0000
  H   H199      1.0  0.83774  0.51024  0.45212  1.0000
  H   H200      1.0  0.84380  0.47229  0.44480  1.0000
  C   C258      1.0  0.55125  0.26366  0.33621  1.0000
  C   C259      1.0  0.55118  0.28755  0.32924  1.0000
  C   C260      1.0  0.52449  0.28201  0.33144  1.0000
  N   N20       1.0  0.50944  0.25463  0.33328  1.0000
  C   C261      1.0  0.52460  0.24242  0.33482  1.0000
  C   C262      1.0  0.51679  0.21448  0.33523  1.0000
  C   C263      1.0  0.48940  0.19329  0.33582  1.0000
  N   N21       1.0  0.46670  0.19512  0.33574  1.0000
  C   C264      1.0  0.41654  0.16429  0.33510  1.0000
  C   C265      1.0  0.40847  0.18417  0.33343  1.0000
  N   N22       1.0  0.42355  0.21153  0.33346  1.0000
  C   C266      1.0  0.40836  0.22370  0.33375  1.0000
  C   C267      1.0  0.38170  0.20251  0.33630  1.0000
  C   C268      1.0  0.38176  0.17858  0.33135  1.0000
  C   C269      1.0  0.41633  0.25162  0.33197  1.0000
  C   C270      1.0  0.44374  0.27283  0.32925  1.0000
  N   N23       1.0  0.46651  0.27115  0.33087  1.0000
  C   C271      1.0  0.48914  0.29574  0.33089  1.0000
  C   C272      1.0  0.48017  0.31436  0.33103  1.0000
  C   C273      1.0  0.45252  0.30038  0.32501  1.0000
  C   C274      1.0  0.51657  0.30206  0.33154  1.0000
  C   C275      1.0  0.53734  0.33009  0.33406  1.0000
  C   C276      1.0  0.58087  0.38519  0.33481  1.0000
  C   C277      1.0  0.57910  0.36626  0.39928  1.0000
  C   C278      1.0  0.55681  0.34000  0.40292  1.0000
  C   C279      1.0  0.39569  0.25899  0.33470  1.0000
  C   C280      1.0  0.35687  0.27687  0.33520  1.0000
  C   C281      1.0  0.37784  0.28621  0.39919  1.0000
  C   C282      1.0  0.39553  0.27594  0.40299  1.0000
  C   C283      1.0  0.39598  0.13625  0.33300  1.0000
  C   C284      1.0  0.37575  0.12469  0.39938  1.0000
  C   C285      1.0  0.35552  0.09737  0.39533  1.0000
  C   C286      1.0  0.35705  0.07958  0.33311  1.0000
  C   C287      1.0  0.53762  0.20731  0.33344  1.0000
  C   C288      1.0  0.53977  0.19111  0.40058  1.0000
  C   C289      1.0  0.58114  0.19573  0.33390  1.0000
  C   C290      1.0  0.55987  0.18382  0.39680  1.0000
  H   H201      1.0  0.55965  0.17086  0.44403  1.0000
  H   H202      1.0  0.52611  0.18375  0.45169  1.0000
  H   H203      1.0  0.56855  0.26272  0.33987  1.0000
  H   H204      1.0  0.49009  0.24492  0.33376  1.0000
  H   H205      1.0  0.44290  0.22124  0.33323  1.0000
  H   H206      1.0  0.44162  0.13143  0.34558  1.0000
  H   H207      1.0  0.37507  0.13634  0.44991  1.0000
  H   H208      1.0  0.34050  0.09028  0.44197  1.0000
  H   H209      1.0  0.36443  0.20352  0.33868  1.0000
  H   H210      1.0  0.49134  0.33490  0.33273  1.0000
  H   H211      1.0  0.44117  0.30954  0.32130  1.0000
  H   H212      1.0  0.40984  0.28277  0.45211  1.0000
  H   H213      1.0  0.38046  0.30064  0.44458  1.0000
  H   H214      1.0  0.55610  0.32744  0.45271  1.0000
  H   H215      1.0  0.59405  0.37145  0.44532  1.0000
  C   C291      1.0  0.80266  0.28745  0.33551  1.0000
  C   C292      1.0  0.78434  0.24235  0.33060  1.0000
  C   C293      1.0  0.85185  0.30219  0.33449  1.0000
  C   C294      1.0  0.87305  0.29600  0.33510  1.0000
  C   C295      1.0  0.88220  0.22420  0.33247  1.0000
  C   C296      1.0  0.86388  0.17911  0.33528  1.0000
  C   C297      1.0  0.81476  0.16460  0.33134  1.0000
  C   C298      1.0  0.79354  0.17079  0.32875  1.0000
  N   N24       1.0  0.79521  0.19524  0.33021  1.0000
  C   C299      1.0  0.75201  0.16568  0.33042  1.0000
  C   C300      1.0  0.76599  0.15201  0.32478  1.0000
  C   C301      1.0  0.73627  0.20712  0.33356  1.0000
  C   C302      1.0  0.70014  0.21277  0.39895  1.0000
  C   C303      1.0  0.72638  0.21668  0.40256  1.0000
  C   C304      1.0  0.80740  0.13659  0.33427  1.0000
  C   C305      1.0  0.78952  0.07989  0.33512  1.0000
  C   C306      1.0  0.78018  0.09156  0.39905  1.0000
  C   C307      1.0  0.79045  0.11953  0.40264  1.0000
  C   C308      1.0  0.94161  0.25095  0.39888  1.0000
  C   C309      1.0  0.96894  0.25807  0.39511  1.0000
  C   C310      1.0  0.87521  0.34853  0.39997  1.0000
  C   C311      1.0  0.87063  0.38531  0.33339  1.0000
  C   C312      1.0  0.88250  0.37592  0.39627  1.0000
  H   H216      1.0  0.89546  0.38865  0.44348  1.0000
  H   H217      1.0  0.88256  0.34223  0.45103  1.0000
  H   H218      1.0  0.80360  0.30569  0.33900  1.0000
  H   H219      1.0  0.84512  0.22156  0.33251  1.0000
  H   H220      1.0  0.92991  0.23862  0.44936  1.0000
  H   H221      1.0  0.97599  0.25011  0.44173  1.0000
  H   H222      1.0  0.86287  0.16083  0.33798  1.0000
  H   H223      1.0  0.73147  0.15632  0.33232  1.0000
  H   H224      1.0  0.75685  0.13151  0.32088  1.0000
  H   H225      1.0  0.78363  0.12702  0.45180  1.0000
  H   H226      1.0  0.76576  0.07978  0.44454  1.0000
  H   H227      1.0  0.73898  0.22862  0.45210  1.0000
  H   H228      1.0  0.69498  0.22258  0.44495  1.0000
  C   C313      1.0  0.21381  0.63181  0.33483  1.0000
  C   C314      1.0  0.21543  0.61946  0.41568  1.0000
  C   C315      1.0  0.20996  0.59230  0.41347  1.0000
  C   C316      1.0  0.21377  0.58170  0.33204  1.0000
  C   C317      1.0  0.19945  0.57537  0.49597  1.0000
  H   H229      1.0  0.18394  0.57847  0.52686  1.0000
  H   H230      1.0  0.21558  0.58061  0.54412  1.0000
  H   H231      1.0  0.18991  0.55385  0.48187  1.0000
  C   C318      1.0  0.22435  0.63436  0.50242  1.0000
  H   H232      1.0  0.23714  0.65603  0.49319  1.0000
  H   H233      1.0  0.23663  0.62821  0.54037  1.0000
  H   H234      1.0  0.20686  0.63042  0.54253  1.0000
  C   C319      1.0  0.43455  0.58191  0.33510  1.0000
  C   C320      1.0  0.44687  0.59587  0.41598  1.0000
  C   C321      1.0  0.47403  0.61757  0.41380  1.0000
  C   C322      1.0  0.48466  0.63200  0.33238  1.0000
  C   C323      1.0  0.49092  0.62400  0.49634  1.0000
  H   H235      1.0  0.48781  0.60540  0.52727  1.0000
  H   H236      1.0  0.48565  0.63489  0.54444  1.0000
  H   H237      1.0  0.51245  0.63599  0.48228  1.0000
  C   C324      1.0  0.43193  0.58989  0.50269  1.0000
  H   H238      1.0  0.41026  0.58096  0.49346  1.0000
  H   H239      1.0  0.43803  0.60832  0.54057  1.0000
  H   H240      1.0  0.43590  0.57638  0.54287  1.0000
  C   C325      1.0  0.48448  0.85259  0.33542  1.0000
  C   C326      1.0  0.47044  0.85093  0.41620  1.0000
  C   C327      1.0  0.44873  0.85638  0.41386  1.0000
  C   C328      1.0  0.43438  0.85260  0.33235  1.0000
  C   C329      1.0  0.44223  0.86683  0.49633  1.0000
  H   H241      1.0  0.46081  0.88231  0.52738  1.0000
  H   H242      1.0  0.43128  0.85066  0.54438  1.0000
  H   H243      1.0  0.43026  0.87638  0.48215  1.0000
  C   C330      1.0  0.47637  0.84198  0.50298  1.0000
  H   H244      1.0  0.48524  0.82919  0.49381  1.0000
  H   H245      1.0  0.45793  0.82971  0.54094  1.0000
  H   H246      1.0  0.48991  0.85947  0.54306  1.0000
  C   C331      1.0  0.87477  0.41238  0.33547  1.0000
  C   C332      1.0  0.87310  0.42472  0.41629  1.0000
  C   C333      1.0  0.87857  0.45189  0.41404  1.0000
  C   C334      1.0  0.87478  0.46249  0.33259  1.0000
  C   C335      1.0  0.88903  0.46880  0.49653  1.0000
  H   H247      1.0  0.90452  0.46570  0.52746  1.0000
  H   H248      1.0  0.87287  0.46356  0.54465  1.0000
  H   H249      1.0  0.89857  0.49033  0.48240  1.0000
  C   C336      1.0  0.86417  0.40982  0.50305  1.0000
  H   H250      1.0  0.85138  0.38815  0.49387  1.0000
  H   H251      1.0  0.85189  0.41596  0.54107  1.0000
  H   H252      1.0  0.88167  0.41376  0.54308  1.0000
  C   C337      1.0  0.65399  0.46230  0.33584  1.0000
  C   C338      1.0  0.64163  0.44831  0.41668  1.0000
  C   C339      1.0  0.61446  0.42661  0.41446  1.0000
  C   C340      1.0  0.60388  0.41221  0.33302  1.0000
  C   C341      1.0  0.59753  0.42018  0.49695  1.0000
  H   H253      1.0  0.60062  0.43877  0.52784  1.0000
  H   H254      1.0  0.60276  0.40927  0.54510  1.0000
  H   H255      1.0  0.57600  0.40819  0.48283  1.0000
  C   C342      1.0  0.65651  0.45428  0.50342  1.0000
  H   H256      1.0  0.67818  0.46315  0.49420  1.0000
  H   H257      1.0  0.65035  0.43585  0.54142  1.0000
  H   H258      1.0  0.65257  0.46783  0.54350  1.0000
  C   C343      1.0  0.60409  0.19162  0.33592  1.0000
  C   C344      1.0  0.61808  0.19326  0.41673  1.0000
  C   C345      1.0  0.63978  0.18781  0.41444  1.0000
  C   C346      1.0  0.65419  0.19162  0.33295  1.0000
  C   C347      1.0  0.64624  0.17735  0.49694  1.0000
  H   H259      1.0  0.62765  0.16186  0.52796  1.0000
  H   H260      1.0  0.65715  0.19351  0.54498  1.0000
  H   H261      1.0  0.65823  0.16781  0.48280  1.0000
  C   C348      1.0  0.61210  0.20219  0.50348  1.0000
  H   H262      1.0  0.60318  0.21495  0.49431  1.0000
  H   H263      1.0  0.63053  0.21450  0.54136  1.0000
  H   H264      1.0  0.59858  0.18469  0.54364  1.0000
  C   C349      1.0  0.01555  0.28796  0.33522  1.0000
  C   C350      1.0  0.03064  0.29685  0.41626  1.0000
  C   C351      1.0  0.05882  0.30614  0.41419  1.0000
  C   C352      1.0  0.07328  0.31667  0.33278  1.0000
  C   C353      1.0  0.07230  0.30393  0.49685  1.0000
  H   H265      1.0  0.05979  0.28427  0.52801  1.0000
  H   H266      1.0  0.07554  0.31960  0.54472  1.0000
  H   H267      1.0  0.09167  0.30537  0.48286  1.0000
  C   C354      1.0  0.01850  0.29851  0.50293  1.0000
  H   H268      1.0  0.00091  0.30084  0.49363  1.0000
  H   H269      1.0  0.03267  0.31616  0.54118  1.0000
  H   H270      1.0  0.01284  0.28052  0.54280  1.0000
  C   C355      1.0  0.77840  0.72748  0.33558  1.0000
  C   C356      1.0  0.76949  0.73367  0.41664  1.0000
  C   C357      1.0  0.76022  0.75258  0.41460  1.0000
  C   C358      1.0  0.74970  0.75650  0.33322  1.0000
  C   C359      1.0  0.76242  0.76827  0.49730  1.0000
  H   H271      1.0  0.78207  0.77543  0.52838  1.0000
  H   H272      1.0  0.74675  0.75583  0.54520  1.0000
  H   H273      1.0  0.76096  0.78619  0.48337  1.0000
  C   C360      1.0  0.76783  0.71989  0.50331  1.0000
  H   H274      1.0  0.76557  0.70000  0.49404  1.0000
  H   H275      1.0  0.75012  0.71634  0.54146  1.0000
  H   H276      1.0  0.78578  0.73227  0.54324  1.0000
  C   C361      1.0  0.33888  0.05081  0.33527  1.0000
  C   C362      1.0  0.33264  0.03568  0.41626  1.0000
  C   C363      1.0  0.31374  0.00751  0.41411  1.0000
  C   C364      1.0  0.30985  0.99309  0.33268  1.0000
  C   C365      1.0  0.29799  0.99399  0.49674  1.0000
  H   H277      1.0  0.29083  0.00649  0.52786  1.0000
  H   H278      1.0  0.31040  0.99073  0.54465  1.0000
  H   H279      1.0  0.28007  0.97462  0.48271  1.0000
  C   C366      1.0  0.34640  0.04776  0.50297  1.0000
  H   H280      1.0  0.36631  0.06538  0.49375  1.0000
  H   H281      1.0  0.34991  0.03357  0.54105  1.0000
  H   H282      1.0  0.33403  0.05335  0.54296  1.0000
  C   C367      1.0  0.07299  0.75619  0.33476  1.0000
  C   C368      1.0  0.05792  0.74733  0.41589  1.0000
  C   C369      1.0  0.02974  0.73806  0.41397  1.0000
  C   C370      1.0  0.01527  0.72752  0.33266  1.0000
  C   C371      1.0  0.01628  0.74029  0.49672  1.0000
  H   H283      1.0  0.02879  0.75996  0.52772  1.0000
  H   H284      1.0  0.01307  0.72465  0.54466  1.0000
  H   H285      1.0  0.99689  0.73883  0.48287  1.0000
  C   C372      1.0  0.07005  0.74566  0.50250  1.0000
  H   H286      1.0  0.08769  0.74342  0.49316  1.0000
  H   H287      1.0  0.05590  0.72795  0.54062  1.0000
  H   H288      1.0  0.07562  0.76361  0.54250  1.0000
  C   C373      1.0  0.31014  0.31667  0.33519  1.0000
  C   C374      1.0  0.31901  0.31047  0.41628  1.0000
  C   C375      1.0  0.32829  0.29158  0.41433  1.0000
  C   C376      1.0  0.33885  0.28766  0.33300  1.0000
  C   C377      1.0  0.32604  0.27588  0.49705  1.0000
  H   H289      1.0  0.30637  0.26872  0.52810  1.0000
  H   H290      1.0  0.34168  0.28831  0.54497  1.0000
  H   H291      1.0  0.32750  0.25796  0.48316  1.0000
  C   C378      1.0  0.32065  0.32427  0.50290  1.0000
  H   H292      1.0  0.32294  0.34417  0.49355  1.0000
  H   H293      1.0  0.33833  0.32780  0.54108  1.0000
  H   H294      1.0  0.30268  0.31192  0.54285  1.0000
  C   C379      1.0  0.74968  0.99336  0.33546  1.0000
  C   C380      1.0  0.75586  0.00845  0.41649  1.0000
  C   C381      1.0  0.77477  0.03663  0.41443  1.0000
  C   C382      1.0  0.77870  0.05108  0.33304  1.0000
  C   C383      1.0  0.79047  0.05011  0.49709  1.0000
  H   H295      1.0  0.79761  0.03760  0.52820  1.0000
  H   H296      1.0  0.77804  0.05336  0.54499  1.0000
  H   H297      1.0  0.80840  0.06948  0.48311  1.0000
  C   C384      1.0  0.74209  0.99632  0.50318  1.0000
  H   H298      1.0  0.72216  0.97873  0.49391  1.0000
  H   H299      1.0  0.73860  0.01049  0.54149  1.0000
  H   H300      1.0  0.75442  0.99066  0.54298  1.0000
