data_image0
_chemical_formula_structural       C7NCNC2H2C4NC2NC2H2C4NC2NC2H2C2H2C2H2C2H2C2H2C2H2C2H2C2H2C2H2C2H2C2H2C2H2C2H2C24H15C24H15C24H15C24H15C24H15C24H15CH2CH2C2H2C2H2C2H2C2H2C4NC2NC2H2C4NC2NC2H2C4NC2NC2H2C4NC2NC2H2C4NC2NC2H2C4NC2NC2H2
_chemical_formula_sum              "C252 N18 H144"
_cell_length_a       61.6148
_cell_length_b       61.6148
_cell_length_c       14.9915
_cell_angle_alpha    90
_cell_angle_beta     90
_cell_angle_gamma    120

_space_group_name_H-M_alt    "P 1"
_space_group_IT_number       1

loop_
  _space_group_symop_operation_xyz
  'x, y, z'

loop_
  _atom_site_type_symbol
  _atom_site_label
  _atom_site_symmetry_multiplicity
  _atom_site_fract_x
  _atom_site_fract_y
  _atom_site_fract_z
  _atom_site_occupancy
  C   C1        1.0  0.01379  0.50993  0.24434  1.0000
  C   C2        1.0  0.01368  0.51963  0.08928  1.0000
  C   C3        1.0  0.01361  0.49962  0.40052  1.0000
  C   C4        1.0  0.01361  0.53136  0.60091  1.0000
  C   C5        1.0  0.02746  0.51194  0.32317  1.0000
  C   C6        1.0  0.98708  0.49658  0.24436  1.0000
  C   C7        1.0  0.97342  0.48493  0.32322  1.0000
  N   N1        1.0  0.97520  0.49536  0.16629  1.0000
  C   C8        1.0  0.98717  0.50638  0.08930  1.0000
  N   N2        1.0  0.02566  0.52058  0.16624  1.0000
  C   C9        1.0  0.97394  0.50546  0.01151  1.0000
  C   C10       1.0  0.02690  0.53194  0.01146  1.0000
  H   H1        1.0  0.95477  0.49610  0.01139  1.0000
  H   H2        1.0  0.04607  0.54175  0.01131  1.0000
  C   C11       1.0  0.48452  0.50991  0.32316  1.0000
  C   C12       1.0  0.49610  0.50793  0.24403  1.0000
  C   C13       1.0  0.50945  0.49458  0.24353  1.0000
  C   C14       1.0  0.51153  0.48287  0.32213  1.0000
  N   N3        1.0  0.52005  0.49342  0.16521  1.0000
  C   C15       1.0  0.51905  0.50451  0.08848  1.0000
  C   C16       1.0  0.50579  0.51776  0.08898  1.0000
  N   N4        1.0  0.49482  0.51865  0.16618  1.0000
  C   C17       1.0  0.53132  0.50368  0.01044  1.0000
  C   C18       1.0  0.50482  0.53014  0.01144  1.0000
  H   H3        1.0  0.54114  0.49433  0.00995  1.0000
  H   H4        1.0  0.49549  0.53998  0.01173  1.0000
  C   C19       1.0  0.48931  0.97179  0.32212  1.0000
  C   C20       1.0  0.49138  0.98557  0.24353  1.0000
  C   C21       1.0  0.50473  0.01227  0.24404  1.0000
  C   C22       1.0  0.51631  0.02583  0.32316  1.0000
  N   N5        1.0  0.50600  0.02427  0.16619  1.0000
  C   C23       1.0  0.49503  0.01241  0.08900  1.0000
  C   C24       1.0  0.48177  0.98590  0.08850  1.0000
  N   N6        1.0  0.48077  0.97381  0.16522  1.0000
  C   C25       1.0  0.49599  0.02576  0.01147  1.0000
  C   C26       1.0  0.46950  0.97280  0.01045  1.0000
  H   H5        1.0  0.50535  0.04492  0.01171  1.0000
  H   H6        1.0  0.45969  0.95363  0.00994  1.0000
  C   C27       1.0  0.25605  0.53382  0.25333  1.0000
  C   C28       1.0  0.27876  0.53360  0.25351  1.0000
  H   H7        1.0  0.29019  0.54070  0.19893  1.0000
  H   H8        1.0  0.25190  0.54097  0.19845  1.0000
  C   C29       1.0  0.23500  0.49288  0.04883  1.0000
  C   C30       1.0  0.25777  0.49270  0.04908  1.0000
  H   H9        1.0  0.22441  0.48836  0.10556  1.0000
  H   H10       1.0  0.26365  0.48805  0.10600  1.0000
  C   C31       1.0  0.46672  0.71965  0.26254  1.0000
  C   C32       1.0  0.46654  0.74237  0.26023  1.0000
  H   H11       1.0  0.45942  0.74624  0.20462  1.0000
  H   H12       1.0  0.45979  0.70799  0.20846  1.0000
  C   C33       1.0  0.50760  0.74302  0.05792  1.0000
  C   C34       1.0  0.50745  0.76580  0.05562  1.0000
  H   H13       1.0  0.51232  0.73747  0.11547  1.0000
  H   H14       1.0  0.51205  0.77672  0.11152  1.0000
  C   C35       1.0  0.27878  0.74434  0.26895  1.0000
  C   C36       1.0  0.25585  0.72162  0.26905  1.0000
  H   H15       1.0  0.25144  0.71028  0.21422  1.0000
  H   H16       1.0  0.29002  0.74859  0.21388  1.0000
  C   C37       1.0  0.25877  0.76525  0.06440  1.0000
  C   C38       1.0  0.23583  0.74247  0.06456  1.0000
  H   H17       1.0  0.26477  0.77589  0.12104  1.0000
  H   H18       1.0  0.22523  0.73664  0.12132  1.0000
  C   C39       1.0  0.74502  0.46619  0.26903  1.0000
  C   C40       1.0  0.72212  0.46604  0.26880  1.0000
  H   H19       1.0  0.71087  0.45901  0.21376  1.0000
  H   H20       1.0  0.74946  0.45930  0.21414  1.0000
  C   C41       1.0  0.76504  0.50709  0.06450  1.0000
  C   C42       1.0  0.74209  0.50691  0.06433  1.0000
  H   H21       1.0  0.77564  0.51186  0.12126  1.0000
  H   H22       1.0  0.73609  0.51156  0.12096  1.0000
  C   C43       1.0  0.53433  0.27626  0.26035  1.0000
  C   C44       1.0  0.53406  0.25331  0.26256  1.0000
  H   H23       1.0  0.54104  0.24862  0.20855  1.0000
  H   H24       1.0  0.54143  0.28724  0.20471  1.0000
  C   C45       1.0  0.49342  0.25883  0.05569  1.0000
  C   C46       1.0  0.49325  0.23589  0.05801  1.0000
  H   H25       1.0  0.48884  0.26517  0.11160  1.0000
  H   H26       1.0  0.48854  0.22564  0.11559  1.0000
  C   C47       1.0  0.72210  0.25530  0.25361  1.0000
  C   C48       1.0  0.74484  0.27820  0.25331  1.0000
  H   H27       1.0  0.74896  0.28951  0.19848  1.0000
  H   H28       1.0  0.71069  0.25094  0.19895  1.0000
  C   C49       1.0  0.74306  0.23533  0.04909  1.0000
  C   C50       1.0  0.76582  0.25828  0.04887  1.0000
  H   H29       1.0  0.73717  0.22479  0.10599  1.0000
  H   H30       1.0  0.77642  0.26435  0.10561  1.0000
  C   C51       1.0  0.17522  0.60773  0.34032  1.0000
  C   C52       1.0  0.14878  0.59399  0.33765  1.0000
  C   C53       1.0  0.13527  0.56744  0.33050  1.0000
  C   C54       1.0  0.14935  0.55493  0.32586  1.0000
  C   C55       1.0  0.17579  0.56805  0.33081  1.0000
  C   C56       1.0  0.18835  0.59445  0.33636  1.0000
  C   C57       1.0  0.10831  0.55369  0.32997  1.0000
  C   C58       1.0  0.09432  0.56359  0.28948  1.0000
  C   C59       1.0  0.06797  0.55026  0.28926  1.0000
  C   C60       1.0  0.05430  0.52597  0.32663  1.0000
  C   C61       1.0  0.06815  0.51610  0.36808  1.0000
  C   C62       1.0  0.09450  0.52975  0.37044  1.0000
  C   C63       1.0  0.18884  0.63430  0.34883  1.0000
  C   C64       1.0  0.18627  0.64992  0.28562  1.0000
  C   C65       1.0  0.20269  0.67606  0.28656  1.0000
  C   C66       1.0  0.22174  0.68732  0.35184  1.0000
  C   C67       1.0  0.22365  0.67169  0.41676  1.0000
  C   C68       1.0  0.20743  0.64566  0.41551  1.0000
  C   C69       1.0  0.18987  0.55545  0.33465  1.0000
  C   C70       1.0  0.20821  0.56194  0.40183  1.0000
  C   C71       1.0  0.22419  0.55185  0.40192  1.0000
  C   C72       1.0  0.22219  0.53460  0.33565  1.0000
  C   C73       1.0  0.20342  0.52759  0.26964  1.0000
  C   C74       1.0  0.18727  0.53765  0.26972  1.0000
  H   H31       1.0  0.20121  0.68673  0.23723  1.0000
  H   H32       1.0  0.17356  0.64224  0.23477  1.0000
  H   H33       1.0  0.23783  0.67891  0.46276  1.0000
  H   H34       1.0  0.21005  0.63492  0.46164  1.0000
  H   H35       1.0  0.21070  0.57476  0.45002  1.0000
  H   H36       1.0  0.23816  0.55827  0.44868  1.0000
  H   H37       1.0  0.17460  0.53297  0.21894  1.0000
  H   H38       1.0  0.20182  0.51560  0.21951  1.0000
  H   H39       1.0  0.10348  0.52191  0.40306  1.0000
  H   H40       1.0  0.05915  0.49863  0.39623  1.0000
  H   H41       1.0  0.05884  0.55858  0.26104  1.0000
  H   H42       1.0  0.10314  0.58061  0.25820  1.0000
  H   H43       1.0  0.13932  0.60360  0.34466  1.0000
  H   H44       1.0  0.20756  0.60425  0.33719  1.0000
  H   H45       1.0  0.14029  0.53583  0.32042  1.0000
  C   C75       1.0  0.39281  0.56663  0.33309  1.0000
  C   C76       1.0  0.40599  0.55337  0.32816  1.0000
  C   C77       1.0  0.43258  0.56576  0.33245  1.0000
  C   C78       1.0  0.44575  0.59232  0.33930  1.0000
  C   C79       1.0  0.43318  0.60619  0.34188  1.0000
  C   C80       1.0  0.40677  0.59302  0.33826  1.0000
  C   C81       1.0  0.44570  0.55191  0.33151  1.0000
  C   C82       1.0  0.43551  0.52794  0.37176  1.0000
  C   C83       1.0  0.44812  0.51420  0.36894  1.0000
  C   C84       1.0  0.47179  0.52401  0.32719  1.0000
  C   C85       1.0  0.48247  0.54832  0.29006  1.0000
  C   C86       1.0  0.46954  0.56174  0.29074  1.0000
  C   C87       1.0  0.36614  0.55419  0.33677  1.0000
  C   C88       1.0  0.35088  0.53651  0.27157  1.0000
  C   C89       1.0  0.32472  0.52672  0.27103  1.0000
  C   C90       1.0  0.31305  0.53393  0.33674  1.0000
  C   C91       1.0  0.32833  0.55103  0.40334  1.0000
  C   C92       1.0  0.35434  0.56082  0.40376  1.0000
  C   C93       1.0  0.44628  0.63279  0.34909  1.0000
  C   C94       1.0  0.43919  0.64453  0.41476  1.0000
  C   C95       1.0  0.44907  0.67057  0.41418  1.0000
  C   C96       1.0  0.46658  0.68584  0.34856  1.0000
  C   C97       1.0  0.47430  0.67421  0.28452  1.0000
  C   C98       1.0  0.46446  0.64805  0.28524  1.0000
  H   H46       1.0  0.31432  0.51485  0.22066  1.0000
  H   H47       1.0  0.35884  0.53176  0.22089  1.0000
  H   H48       1.0  0.32085  0.55758  0.44989  1.0000
  H   H49       1.0  0.36472  0.57359  0.45203  1.0000
  H   H50       1.0  0.42581  0.63405  0.46119  1.0000
  H   H51       1.0  0.44215  0.67806  0.45930  1.0000
  H   H52       1.0  0.46941  0.64009  0.23513  1.0000
  H   H53       1.0  0.48641  0.68460  0.23467  1.0000
  H   H54       1.0  0.47777  0.57877  0.25949  1.0000
  H   H55       1.0  0.49990  0.55661  0.26166  1.0000
  H   H56       1.0  0.43961  0.49671  0.39692  1.0000
  H   H57       1.0  0.41872  0.52013  0.40453  1.0000
  H   H58       1.0  0.39586  0.53428  0.32282  1.0000
  H   H59       1.0  0.39745  0.60292  0.33881  1.0000
  H   H60       1.0  0.46483  0.60186  0.34596  1.0000
  C   C99       1.0  0.43257  0.82330  0.33003  1.0000
  C   C100      1.0  0.44585  0.84973  0.32468  1.0000
  C   C101      1.0  0.43349  0.86396  0.32873  1.0000
  C   C102      1.0  0.40693  0.85060  0.33570  1.0000
  C   C103      1.0  0.39304  0.82417  0.33869  1.0000
  C   C104      1.0  0.40618  0.81089  0.33528  1.0000
  C   C105      1.0  0.44737  0.89093  0.32809  1.0000
  C   C106      1.0  0.47129  0.90465  0.36871  1.0000
  C   C107      1.0  0.48502  0.93101  0.36656  1.0000
  C   C108      1.0  0.47525  0.94494  0.32516  1.0000
  C   C109      1.0  0.45099  0.93136  0.28753  1.0000
  C   C110      1.0  0.43759  0.90501  0.28752  1.0000
  C   C111      1.0  0.44502  0.80909  0.33522  1.0000
  C   C112      1.0  0.46284  0.81135  0.27091  1.0000
  C   C113      1.0  0.47279  0.79511  0.27248  1.0000
  C   C114      1.0  0.46569  0.77662  0.33962  1.0000
  C   C115      1.0  0.44839  0.77494  0.40515  1.0000
  C   C116      1.0  0.43842  0.79100  0.40344  1.0000
  C   C117      1.0  0.36647  0.81072  0.34732  1.0000
  C   C118      1.0  0.35502  0.79222  0.41423  1.0000
  C   C119      1.0  0.32894  0.77624  0.41586  1.0000
  C   C120      1.0  0.31337  0.77831  0.35109  1.0000
  C   C121      1.0  0.32474  0.79728  0.28560  1.0000
  C   C122      1.0  0.35092  0.81344  0.28421  1.0000
  H   H61       1.0  0.48482  0.79648  0.22287  1.0000
  H   H62       1.0  0.46761  0.82384  0.21949  1.0000
  H   H63       1.0  0.44190  0.76116  0.45266  1.0000
  H   H64       1.0  0.42556  0.78875  0.45117  1.0000
  H   H65       1.0  0.36569  0.78946  0.46023  1.0000
  H   H66       1.0  0.32164  0.76207  0.46189  1.0000
  H   H67       1.0  0.35866  0.82616  0.23341  1.0000
  H   H68       1.0  0.31410  0.79889  0.23643  1.0000
  H   H69       1.0  0.42058  0.89626  0.25613  1.0000
  H   H70       1.0  0.44271  0.94054  0.25936  1.0000
  H   H71       1.0  0.50247  0.93994  0.39489  1.0000
  H   H72       1.0  0.47906  0.89561  0.40141  1.0000
  H   H73       1.0  0.46495  0.85868  0.31959  1.0000
  H   H74       1.0  0.39628  0.79169  0.33654  1.0000
  H   H75       1.0  0.39742  0.86017  0.34248  1.0000
  C   C123      1.0  0.82510  0.39270  0.33093  1.0000
  C   C124      1.0  0.85153  0.40602  0.32596  1.0000
  C   C125      1.0  0.86560  0.43260  0.33059  1.0000
  C   C126      1.0  0.85209  0.44564  0.33771  1.0000
  C   C127      1.0  0.82565  0.43293  0.34039  1.0000
  C   C128      1.0  0.81253  0.40652  0.33645  1.0000
  C   C129      1.0  0.89257  0.44583  0.33009  1.0000
  C   C130      1.0  0.90637  0.43570  0.37055  1.0000
  C   C131      1.0  0.93273  0.44840  0.36820  1.0000
  C   C132      1.0  0.94657  0.47211  0.32673  1.0000
  C   C133      1.0  0.93291  0.48274  0.28936  1.0000
  C   C134      1.0  0.90656  0.46971  0.28958  1.0000
  C   C135      1.0  0.81103  0.36602  0.33478  1.0000
  C   C136      1.0  0.81358  0.35081  0.26974  1.0000
  C   C137      1.0  0.79745  0.32460  0.26969  1.0000
  C   C138      1.0  0.77869  0.31284  0.33575  1.0000
  C   C139      1.0  0.77671  0.32809  0.40208  1.0000
  C   C140      1.0  0.79269  0.35415  0.40201  1.0000
  C   C141      1.0  0.81201  0.44587  0.34884  1.0000
  C   C142      1.0  0.79342  0.43863  0.41548  1.0000
  C   C143      1.0  0.77720  0.44845  0.41670  1.0000
  C   C144      1.0  0.77913  0.46601  0.35180  1.0000
  C   C145      1.0  0.79818  0.47379  0.28654  1.0000
  C   C146      1.0  0.81459  0.46406  0.28561  1.0000
  H   H76       1.0  0.79904  0.31421  0.21956  1.0000
  H   H77       1.0  0.82628  0.35880  0.21906  1.0000
  H   H78       1.0  0.76271  0.32055  0.44873  1.0000
  H   H79       1.0  0.79018  0.36449  0.45013  1.0000
  H   H80       1.0  0.79079  0.42529  0.46164  1.0000
  H   H81       1.0  0.76302  0.44150  0.46271  1.0000
  H   H82       1.0  0.82734  0.46913  0.23488  1.0000
  H   H83       1.0  0.79970  0.48598  0.23729  1.0000
  H   H84       1.0  0.89773  0.47791  0.25831  1.0000
  H   H85       1.0  0.94203  0.50018  0.26113  1.0000
  H   H86       1.0  0.94173  0.43993  0.39632  1.0000
  H   H87       1.0  0.89741  0.41888  0.40318  1.0000
  H   H88       1.0  0.86059  0.39598  0.32057  1.0000
  H   H89       1.0  0.79332  0.39711  0.33728  1.0000
  H   H90       1.0  0.86154  0.46471  0.34472  1.0000
  C   C147      1.0  0.60784  0.43157  0.33871  1.0000
  C   C148      1.0  0.59394  0.44411  0.33565  1.0000
  C   C149      1.0  0.56738  0.43090  0.32876  1.0000
  C   C150      1.0  0.55503  0.40431  0.32473  1.0000
  C   C151      1.0  0.56831  0.39116  0.33008  1.0000
  C   C152      1.0  0.59470  0.40515  0.33530  1.0000
  C   C153      1.0  0.55350  0.44399  0.32814  1.0000
  C   C154      1.0  0.56327  0.46785  0.28756  1.0000
  C   C155      1.0  0.54986  0.48079  0.28753  1.0000
  C   C156      1.0  0.52560  0.47009  0.32518  1.0000
  C   C157      1.0  0.51584  0.44639  0.36660  1.0000
  C   C158      1.0  0.52957  0.43377  0.36877  1.0000
  C   C159      1.0  0.63441  0.44470  0.34729  1.0000
  C   C160      1.0  0.64995  0.46296  0.28415  1.0000
  C   C161      1.0  0.67614  0.47298  0.28549  1.0000
  C   C162      1.0  0.68751  0.46539  0.35103  1.0000
  C   C163      1.0  0.67193  0.44772  0.41571  1.0000
  C   C164      1.0  0.64586  0.43765  0.41418  1.0000
  C   C165      1.0  0.55587  0.36451  0.33521  1.0000
  C   C166      1.0  0.56249  0.35301  0.40336  1.0000
  C   C167      1.0  0.55251  0.32697  0.40506  1.0000
  C   C168      1.0  0.53520  0.31137  0.33955  1.0000
  C   C169      1.0  0.52805  0.32275  0.27253  1.0000
  C   C170      1.0  0.53805  0.34895  0.27091  1.0000
  H   H91       1.0  0.68678  0.48524  0.23637  1.0000
  H   H92       1.0  0.64221  0.46794  0.23336  1.0000
  H   H93       1.0  0.67924  0.44088  0.46184  1.0000
  H   H94       1.0  0.63520  0.42423  0.46021  1.0000
  H   H95       1.0  0.57533  0.36361  0.45114  1.0000
  H   H96       1.0  0.55898  0.31968  0.45261  1.0000
  H   H97       1.0  0.53323  0.35667  0.21962  1.0000
  H   H98       1.0  0.51601  0.31209  0.22294  1.0000
  H   H99       1.0  0.52181  0.41698  0.40147  1.0000
  H   H100      1.0  0.49839  0.43788  0.39495  1.0000
  H   H101      1.0  0.55812  0.49824  0.25933  1.0000
  H   H102      1.0  0.58027  0.47610  0.25611  1.0000
  H   H103      1.0  0.60345  0.46318  0.34251  1.0000
  H   H104      1.0  0.60461  0.39585  0.33655  1.0000
  H   H105      1.0  0.53592  0.39415  0.31965  1.0000
  C   C171      1.0  0.56766  0.17345  0.34189  1.0000
  C   C172      1.0  0.55509  0.14702  0.33924  1.0000
  C   C173      1.0  0.56826  0.13362  0.33245  1.0000
  C   C174      1.0  0.59485  0.14782  0.32818  1.0000
  C   C175      1.0  0.60803  0.17426  0.33314  1.0000
  C   C176      1.0  0.59407  0.18670  0.33829  1.0000
  C   C177      1.0  0.55514  0.10666  0.33152  1.0000
  C   C178      1.0  0.53130  0.09264  0.29072  1.0000
  C   C179      1.0  0.51836  0.06630  0.29007  1.0000
  C   C180      1.0  0.52905  0.05266  0.32719  1.0000
  C   C181      1.0  0.55271  0.06652  0.36895  1.0000
  C   C182      1.0  0.56533  0.09288  0.37176  1.0000
  C   C183      1.0  0.55455  0.18695  0.34901  1.0000
  C   C184      1.0  0.53637  0.18402  0.28518  1.0000
  C   C185      1.0  0.52651  0.20031  0.28444  1.0000
  C   C186      1.0  0.53420  0.21966  0.34849  1.0000
  C   C187      1.0  0.55175  0.22195  0.41405  1.0000
  C   C188      1.0  0.56168  0.20582  0.41453  1.0000
  C   C189      1.0  0.63470  0.18849  0.33679  1.0000
  C   C190      1.0  0.64650  0.20692  0.40376  1.0000
  C   C191      1.0  0.67252  0.22314  0.40336  1.0000
  C   C192      1.0  0.68779  0.22131  0.33674  1.0000
  C   C193      1.0  0.67611  0.20245  0.27099  1.0000
  C   C194      1.0  0.64995  0.18608  0.27153  1.0000
  H   H106      1.0  0.51433  0.19854  0.23475  1.0000
  H   H107      1.0  0.53136  0.17105  0.23523  1.0000
  H   H108      1.0  0.55866  0.23635  0.45916  1.0000
  H   H109      1.0  0.57504  0.20872  0.46104  1.0000
  H   H110      1.0  0.63613  0.20931  0.45205  1.0000
  H   H111      1.0  0.68000  0.23717  0.44990  1.0000
  H   H112      1.0  0.64199  0.17334  0.22095  1.0000
  H   H113      1.0  0.68652  0.20096  0.22068  1.0000
  H   H114      1.0  0.58212  0.10186  0.40454  1.0000
  H   H115      1.0  0.56122  0.05753  0.39691  1.0000
  H   H116      1.0  0.50094  0.05717  0.26167  1.0000
  H   H117      1.0  0.52307  0.10144  0.25951  1.0000
  H   H118      1.0  0.53601  0.13748  0.34596  1.0000
  H   H119      1.0  0.60339  0.20591  0.33883  1.0000
  H   H120      1.0  0.60498  0.13886  0.32288  1.0000
  C   C195      1.0  0.98727  0.48646  0.40055  1.0000
  H   H121      1.0  0.02262  0.50073  0.45914  1.0000
  H   H122      1.0  0.97827  0.47855  0.45917  1.0000
  C   C196      1.0  0.98721  0.51816  0.60093  1.0000
  H   H123      1.0  0.97766  0.51791  0.54484  1.0000
  H   H124      1.0  0.02316  0.54066  0.54480  1.0000
  C   C197      1.0  0.49927  0.48436  0.39975  1.0000
  C   C198      1.0  0.48609  0.49752  0.40023  1.0000
  H   H125      1.0  0.47826  0.49861  0.45904  1.0000
  H   H126      1.0  0.50044  0.47643  0.45822  1.0000
  C   C199      1.0  0.53071  0.51646  0.60016  1.0000
  C   C200      1.0  0.51750  0.52966  0.60067  1.0000
  H   H127      1.0  0.54000  0.51629  0.54392  1.0000
  H   H128      1.0  0.51723  0.53903  0.54478  1.0000
  C   C201      1.0  0.51474  0.01186  0.40023  1.0000
  C   C202      1.0  0.50158  0.98553  0.39973  1.0000
  H   H129      1.0  0.50041  0.97644  0.45821  1.0000
  H   H130      1.0  0.52258  0.02079  0.45903  1.0000
  C   C203      1.0  0.48333  0.01260  0.60066  1.0000
  C   C204      1.0  0.47013  0.98620  0.60015  1.0000
  H   H131      1.0  0.48362  0.02224  0.54475  1.0000
  H   H132      1.0  0.46085  0.97673  0.54389  1.0000
  C   C205      1.0  0.28730  0.52720  0.33131  1.0000
  C   C206      1.0  0.27145  0.51911  0.40728  1.0000
  C   C207      1.0  0.24845  0.51928  0.40702  1.0000
  C   C208      1.0  0.24098  0.52755  0.33077  1.0000
  N   N7        1.0  0.23463  0.51259  0.48346  1.0000
  C   C209      1.0  0.24154  0.50572  0.55951  1.0000
  C   C210      1.0  0.26443  0.50554  0.55977  1.0000
  N   N8        1.0  0.27831  0.51225  0.48397  1.0000
  C   C211      1.0  0.22684  0.49937  0.63744  1.0000
  C   C212      1.0  0.27251  0.49901  0.63795  1.0000
  H   H133      1.0  0.21037  0.49961  0.63784  1.0000
  H   H134      1.0  0.28911  0.49901  0.63872  1.0000
  C   C213      1.0  0.47268  0.75777  0.33673  1.0000
  C   C214      1.0  0.48089  0.75067  0.41408  1.0000
  C   C215      1.0  0.48105  0.72766  0.41644  1.0000
  C   C216      1.0  0.47307  0.71148  0.34139  1.0000
  N   N9        1.0  0.48788  0.72118  0.49401  1.0000
  C   C217      1.0  0.49460  0.73546  0.56884  1.0000
  C   C218      1.0  0.49446  0.75837  0.56651  1.0000
  N   N10       1.0  0.48760  0.76489  0.48958  1.0000
  C   C219      1.0  0.50118  0.72782  0.64793  1.0000
  C   C220      1.0  0.50089  0.77351  0.64331  1.0000
  H   H135      1.0  0.50120  0.71124  0.65017  1.0000
  H   H136      1.0  0.50069  0.79001  0.64220  1.0000
  C   C221      1.0  0.24091  0.71301  0.34687  1.0000
  C   C222      1.0  0.24876  0.72875  0.42310  1.0000
  C   C223      1.0  0.27193  0.75176  0.42293  1.0000
  C   C224      1.0  0.28760  0.75934  0.34652  1.0000
  N   N11       1.0  0.27906  0.76556  0.49940  1.0000
  C   C225      1.0  0.26525  0.75862  0.57537  1.0000
  C   C226      1.0  0.24218  0.73572  0.57553  1.0000
  N   N12       1.0  0.23502  0.72184  0.49972  1.0000
  C   C227      1.0  0.27351  0.77336  0.65321  1.0000
  C   C228      1.0  0.22749  0.72768  0.65353  1.0000
  H   H137      1.0  0.29021  0.78986  0.65364  1.0000
  H   H138      1.0  0.21087  0.71110  0.65421  1.0000
  C   C229      1.0  0.71328  0.47217  0.34644  1.0000
  C   C230      1.0  0.72894  0.48026  0.42286  1.0000
  C   C231      1.0  0.75211  0.48043  0.42305  1.0000
  C   C232      1.0  0.75996  0.47253  0.34683  1.0000
  N   N13       1.0  0.76585  0.48726  0.49967  1.0000
  C   C233      1.0  0.75869  0.49397  0.57548  1.0000
  C   C234      1.0  0.73561  0.49380  0.57531  1.0000
  N   N14       1.0  0.72181  0.48693  0.49933  1.0000
  C   C235      1.0  0.77338  0.50062  0.65348  1.0000
  C   C236      1.0  0.72735  0.50027  0.65314  1.0000
  H   H139      1.0  0.79000  0.50067  0.65416  1.0000
  H   H140      1.0  0.71065  0.50007  0.65356  1.0000
  C   C237      1.0  0.52767  0.23878  0.34142  1.0000
  C   C238      1.0  0.51973  0.24702  0.41646  1.0000
  C   C239      1.0  0.51991  0.27020  0.41410  1.0000
  C   C240      1.0  0.52812  0.28550  0.33674  1.0000
  N   N15       1.0  0.51323  0.27773  0.48958  1.0000
  C   C241      1.0  0.50638  0.26437  0.56654  1.0000
  C   C242      1.0  0.50622  0.24130  0.56889  1.0000
  N   N16       1.0  0.51291  0.23372  0.49405  1.0000
  C   C243      1.0  0.49997  0.27309  0.64335  1.0000
  C   C244      1.0  0.49964  0.22709  0.64801  1.0000
  H   H141      1.0  0.50019  0.28980  0.64222  1.0000
  H   H142      1.0  0.49962  0.21049  0.65028  1.0000
  C   C245      1.0  0.75987  0.28701  0.33082  1.0000
  C   C246      1.0  0.75240  0.27127  0.40706  1.0000
  C   C247      1.0  0.72940  0.24809  0.40730  1.0000
  C   C248      1.0  0.71354  0.24032  0.33132  1.0000
  N   N17       1.0  0.72254  0.23437  0.48397  1.0000
  C   C249      1.0  0.73640  0.24153  0.55979  1.0000
  C   C250      1.0  0.75930  0.26461  0.55957  1.0000
  N   N18       1.0  0.76621  0.27839  0.48353  1.0000
  C   C251      1.0  0.72832  0.22691  0.63795  1.0000
  C   C252      1.0  0.77399  0.27295  0.63751  1.0000
  H   H143      1.0  0.71173  0.21031  0.63868  1.0000
  H   H144      1.0  0.79046  0.28967  0.63793  1.0000
