data_image0
_chemical_formula_structural       C3NC3NC5NC5NC20H18N4C3NC3NC5NC5NC20H18N4C3NC3NC5NC5NC20H18N4C3H2CHC3H2CHC3H2CHC3H2CHC3H2CHC3H2CHC8H8C8H8C8H8C3H2CHC3H2CHC3H2CHC3H2CHC3H2CHC3H2CH
_chemical_formula_sum              "C180 N24 H114"
_cell_length_a       50.6236
_cell_length_b       50.6236
_cell_length_c       14.8539
_cell_angle_alpha    90.0972
_cell_angle_beta     89.9028
_cell_angle_gamma    120

_space_group_name_H-M_alt    "P 1"
_space_group_IT_number       1

loop_
  _space_group_symop_operation_xyz
  'x, y, z'

loop_
  _atom_site_type_symbol
  _atom_site_label
  _atom_site_symmetry_multiplicity
  _atom_site_fract_x
  _atom_site_fract_y
  _atom_site_fract_z
  _atom_site_occupancy
  C   C1        1.0  0.05143  0.65300  0.32502  1.0000
  C   C2        1.0  0.01989  0.63732  0.32511  1.0000
  C   C3        1.0  0.00978  0.60609  0.32458  1.0000
  N   N1        1.0  0.03551  0.60405  0.32439  1.0000
  C   C4        1.0  0.06135  0.63173  0.32471  1.0000
  C   C5        1.0  0.09239  0.63900  0.32443  1.0000
  C   C6        1.0  0.10219  0.61711  0.32427  1.0000
  N   N2        1.0  0.08487  0.58633  0.32447  1.0000
  C   C7        1.0  0.10202  0.57269  0.32435  1.0000
  C   C8        1.0  0.13236  0.59633  0.32381  1.0000
  C   C9        1.0  0.13246  0.62361  0.32416  1.0000
  C   C10       1.0  0.09203  0.54097  0.32461  1.0000
  C   C11       1.0  0.06093  0.51733  0.32466  1.0000
  N   N3        1.0  0.03520  0.51937  0.32440  1.0000
  C   C12       1.0  0.00936  0.49169  0.32476  1.0000
  C   C13       1.0  0.01928  0.47042  0.32517  1.0000
  C   C14       1.0  0.05082  0.48610  0.32528  1.0000
  C   C15       1.0  0.97832  0.48442  0.32445  1.0000
  C   C16       1.0  0.96852  0.50630  0.32423  1.0000
  N   N4        1.0  0.98584  0.53708  0.32441  1.0000
  C   C17       1.0  0.96869  0.55072  0.32430  1.0000
  C   C18       1.0  0.93835  0.52709  0.32381  1.0000
  C   C19       1.0  0.93825  0.49980  0.32418  1.0000
  C   C20       1.0  0.97867  0.58245  0.32455  1.0000
  C   C21       1.0  0.95554  0.59076  0.32496  1.0000
  C   C22       1.0  0.90328  0.59831  0.32322  1.0000
  C   C23       1.0  0.91857  0.59931  0.24257  1.0000
  C   C24       1.0  0.94430  0.59550  0.24318  1.0000
  C   C25       1.0  0.95505  0.45302  0.32450  1.0000
  C   C26       1.0  0.90298  0.39309  0.32679  1.0000
  C   C27       1.0  0.91460  0.40894  0.24467  1.0000
  C   C28       1.0  0.94028  0.43849  0.24353  1.0000
  C   C29       1.0  0.11516  0.53265  0.32505  1.0000
  C   C30       1.0  0.12628  0.52761  0.24331  1.0000
  C   C31       1.0  0.15193  0.52366  0.24268  1.0000
  C   C32       1.0  0.16719  0.52471  0.32330  1.0000
  C   C33       1.0  0.11567  0.67040  0.32444  1.0000
  C   C34       1.0  0.13048  0.68487  0.24345  1.0000
  C   C35       1.0  0.16791  0.73021  0.32675  1.0000
  C   C36       1.0  0.15624  0.71436  0.24460  1.0000
  H   H1        1.0  0.16700  0.72362  0.18504  1.0000
  H   H2        1.0  0.12334  0.67351  0.18339  1.0000
  H   H3        1.0  0.06469  0.67624  0.32521  1.0000
  H   H4        1.0  0.00674  0.64742  0.32546  1.0000
  H   H5        1.0  0.03544  0.58505  0.32394  1.0000
  H   H6        1.0  0.03527  0.53837  0.32381  1.0000
  H   H7        1.0  0.15174  0.64460  0.32417  1.0000
  H   H8        1.0  0.15156  0.59448  0.32340  1.0000
  H   H9        1.0  0.11652  0.52797  0.18337  1.0000
  H   H10       1.0  0.15999  0.52093  0.18217  1.0000
  H   H11       1.0  0.06396  0.47600  0.32571  1.0000
  H   H12       1.0  0.00602  0.44718  0.32541  1.0000
  H   H13       1.0  0.91915  0.52893  0.32348  1.0000
  H   H14       1.0  0.91897  0.47881  0.32427  1.0000
  H   H15       1.0  0.94742  0.44982  0.18347  1.0000
  H   H16       1.0  0.90392  0.39961  0.18509  1.0000
  H   H17       1.0  0.95409  0.59508  0.18323  1.0000
  H   H18       1.0  0.91043  0.60182  0.18203  1.0000
  N   N5        1.0  0.87760  0.36595  0.33414  1.0000
  N   N6        1.0  0.19261  0.52302  0.31605  1.0000
  N   N7        1.0  0.19342  0.75723  0.33414  1.0000
  N   N8        1.0  0.87773  0.59976  0.31599  1.0000
  C   C37       1.0  0.44341  0.48518  0.32423  1.0000
  C   C38       1.0  0.45910  0.46933  0.32427  1.0000
  C   C39       1.0  0.49033  0.49045  0.32368  1.0000
  N   N9        1.0  0.49236  0.51821  0.32348  1.0000
  C   C40       1.0  0.46468  0.51637  0.32388  1.0000
  C   C41       1.0  0.45740  0.54014  0.32361  1.0000
  C   C42       1.0  0.47929  0.57182  0.32338  1.0000
  N   N10       1.0  0.51007  0.58529  0.32355  1.0000
  C   C43       1.0  0.52370  0.61608  0.32340  1.0000
  C   C44       1.0  0.50007  0.62278  0.32287  1.0000
  C   C45       1.0  0.47278  0.59559  0.32326  1.0000
  C   C46       1.0  0.55543  0.63782  0.32365  1.0000
  C   C47       1.0  0.57907  0.63035  0.32371  1.0000
  N   N11       1.0  0.57704  0.60259  0.32346  1.0000
  C   C48       1.0  0.60471  0.60443  0.32388  1.0000
  C   C49       1.0  0.62598  0.63563  0.32428  1.0000
  C   C50       1.0  0.61029  0.65148  0.32436  1.0000
  C   C51       1.0  0.61199  0.58067  0.32357  1.0000
  C   C52       1.0  0.59011  0.54898  0.32332  1.0000
  N   N12       1.0  0.55933  0.53552  0.32349  1.0000
  C   C53       1.0  0.54570  0.50473  0.32334  1.0000
  C   C54       1.0  0.56933  0.49803  0.32286  1.0000
  C   C55       1.0  0.59662  0.52522  0.32324  1.0000
  C   C56       1.0  0.51397  0.48299  0.32359  1.0000
  C   C57       1.0  0.50567  0.45154  0.32400  1.0000
  C   C58       1.0  0.49810  0.39173  0.32227  1.0000
  C   C59       1.0  0.49711  0.40595  0.24161  1.0000
  C   C60       1.0  0.50089  0.43548  0.24222  1.0000
  C   C61       1.0  0.64339  0.58880  0.32371  1.0000
  C   C62       1.0  0.70334  0.59669  0.32631  1.0000
  C   C63       1.0  0.68752  0.59236  0.24412  1.0000
  C   C64       1.0  0.65796  0.58849  0.24282  1.0000
  C   C65       1.0  0.56375  0.66927  0.32408  1.0000
  C   C66       1.0  0.56879  0.68535  0.24234  1.0000
  C   C67       1.0  0.57274  0.71494  0.24172  1.0000
  C   C68       1.0  0.57167  0.72922  0.32232  1.0000
  C   C69       1.0  0.42601  0.53202  0.32373  1.0000
  C   C70       1.0  0.41150  0.53226  0.24281  1.0000
  C   C71       1.0  0.36620  0.52446  0.32633  1.0000
  C   C72       1.0  0.38202  0.52857  0.24411  1.0000
  H   H19       1.0  0.37272  0.52997  0.18458  1.0000
  H   H20       1.0  0.42283  0.53644  0.18271  1.0000
  H   H21       1.0  0.42018  0.47520  0.32446  1.0000
  H   H22       1.0  0.44900  0.44608  0.32464  1.0000
  H   H23       1.0  0.51136  0.53715  0.32296  1.0000
  H   H24       1.0  0.55803  0.58365  0.32289  1.0000
  H   H25       1.0  0.45180  0.59389  0.32334  1.0000
  H   H26       1.0  0.50191  0.64382  0.32249  1.0000
  H   H27       1.0  0.56842  0.67515  0.18240  1.0000
  H   H28       1.0  0.57546  0.72567  0.18119  1.0000
  H   H29       1.0  0.62040  0.67472  0.32479  1.0000
  H   H30       1.0  0.64922  0.64560  0.32455  1.0000
  H   H31       1.0  0.56749  0.47699  0.32248  1.0000
  H   H32       1.0  0.61761  0.52693  0.32332  1.0000
  H   H33       1.0  0.64666  0.58422  0.18273  1.0000
  H   H34       1.0  0.69687  0.59094  0.18460  1.0000
  H   H35       1.0  0.50132  0.44563  0.18227  1.0000
  H   H36       1.0  0.49455  0.39522  0.18108  1.0000
  N   N13       1.0  0.73046  0.59844  0.33383  1.0000
  N   N14       1.0  0.57336  0.75633  0.31508  1.0000
  N   N15       1.0  0.33917  0.52293  0.33384  1.0000
  N   N16       1.0  0.49664  0.36472  0.31504  1.0000
  C   C73       1.0  0.61122  0.04499  0.32371  1.0000
  C   C74       1.0  0.62708  0.07653  0.32385  1.0000
  C   C75       1.0  0.60596  0.08663  0.32323  1.0000
  N   N17       1.0  0.57819  0.06090  0.32295  1.0000
  C   C76       1.0  0.58003  0.03507  0.32330  1.0000
  C   C77       1.0  0.55625  0.00402  0.32296  1.0000
  C   C78       1.0  0.52457  0.99423  0.32278  1.0000
  N   N18       1.0  0.51111  0.01155  0.32303  1.0000
  C   C79       1.0  0.48032  0.99439  0.32295  1.0000
  C   C80       1.0  0.47362  0.96406  0.32241  1.0000
  C   C81       1.0  0.50080  0.96396  0.32269  1.0000
  C   C82       1.0  0.45859  0.00438  0.32329  1.0000
  C   C83       1.0  0.46606  0.03549  0.32329  1.0000
  N   N19       1.0  0.49382  0.06122  0.32297  1.0000
  C   C84       1.0  0.49198  0.08705  0.32332  1.0000
  C   C85       1.0  0.46079  0.07713  0.32376  1.0000
  C   C86       1.0  0.44493  0.04560  0.32393  1.0000
  C   C87       1.0  0.51575  0.11810  0.32299  1.0000
  C   C88       1.0  0.54743  0.12789  0.32278  1.0000
  N   N20       1.0  0.56089  0.11058  0.32299  1.0000
  C   C89       1.0  0.59168  0.12773  0.32289  1.0000
  C   C90       1.0  0.59838  0.15806  0.32239  1.0000
  C   C91       1.0  0.57120  0.15817  0.32270  1.0000
  C   C92       1.0  0.61342  0.11774  0.32320  1.0000
  C   C93       1.0  0.64487  0.14088  0.32374  1.0000
  C   C94       1.0  0.70468  0.19314  0.32238  1.0000
  C   C95       1.0  0.69052  0.17788  0.24163  1.0000
  C   C96       1.0  0.66099  0.15213  0.24207  1.0000
  C   C97       1.0  0.50762  0.14137  0.32307  1.0000
  C   C98       1.0  0.49972  0.19341  0.32554  1.0000
  C   C99       1.0  0.50406  0.18183  0.24338  1.0000
  C   C100      1.0  0.50792  0.15615  0.24213  1.0000
  C   C101      1.0  0.42713  0.98125  0.32386  1.0000
  C   C102      1.0  0.41101  0.97008  0.24221  1.0000
  C   C103      1.0  0.38140  0.94445  0.24178  1.0000
  C   C104      1.0  0.36718  0.92921  0.32248  1.0000
  C   C105      1.0  0.56437  0.98074  0.32303  1.0000
  C   C106      1.0  0.56410  0.96590  0.24209  1.0000
  C   C107      1.0  0.57192  0.92849  0.32552  1.0000
  C   C108      1.0  0.56781  0.94012  0.24334  1.0000
  H   H37       1.0  0.56642  0.92939  0.18378  1.0000
  H   H38       1.0  0.55995  0.97303  0.18200  1.0000
  H   H39       1.0  0.62120  0.03172  0.32393  1.0000
  H   H40       1.0  0.65033  0.08967  0.32427  1.0000
  H   H41       1.0  0.55926  0.06097  0.32237  1.0000
  H   H42       1.0  0.51275  0.06115  0.32241  1.0000
  H   H43       1.0  0.50250  0.94467  0.32272  1.0000
  H   H44       1.0  0.45257  0.94486  0.32204  1.0000
  H   H45       1.0  0.42114  0.97985  0.18222  1.0000
  H   H46       1.0  0.37063  0.93636  0.18133  1.0000
  H   H47       1.0  0.42169  0.03245  0.32439  1.0000
  H   H48       1.0  0.45081  0.09040  0.32401  1.0000
  H   H49       1.0  0.61943  0.17726  0.32202  1.0000
  H   H50       1.0  0.56949  0.17745  0.32276  1.0000
  H   H51       1.0  0.51223  0.14906  0.18207  1.0000
  H   H52       1.0  0.50550  0.19255  0.18385  1.0000
  H   H53       1.0  0.65087  0.14237  0.18205  1.0000
  H   H54       1.0  0.70128  0.18602  0.18117  1.0000
  N   N21       1.0  0.49795  0.21878  0.33300  1.0000
  N   N22       1.0  0.34006  0.90379  0.31542  1.0000
  N   N23       1.0  0.57345  0.90299  0.33299  1.0000
  N   N24       1.0  0.73170  0.21868  0.31535  1.0000
  C   C109      1.0  0.29227  0.52049  0.30178  1.0000
  C   C110      1.0  0.27203  0.51973  0.23470  1.0000
  C   C111      1.0  0.24508  0.51989  0.25741  1.0000
  H   H55       1.0  0.27681  0.51925  0.16788  1.0000
  H   H56       1.0  0.23135  0.51948  0.20628  1.0000
  C   C112      1.0  0.31911  0.52090  0.27672  1.0000
  H   H57       1.0  0.32309  0.52000  0.21157  1.0000
  C   C113      1.0  0.57590  0.85851  0.30088  1.0000
  C   C114      1.0  0.57666  0.83897  0.23379  1.0000
  C   C115      1.0  0.57651  0.81189  0.25648  1.0000
  H   H58       1.0  0.57714  0.84417  0.16697  1.0000
  H   H59       1.0  0.57693  0.79852  0.20533  1.0000
  C   C116      1.0  0.57548  0.88491  0.27585  1.0000
  H   H60       1.0  0.57638  0.88974  0.21071  1.0000
  C   C117      1.0  0.23787  0.80413  0.30181  1.0000
  C   C118      1.0  0.25737  0.82435  0.23461  1.0000
  C   C119      1.0  0.28447  0.85130  0.25715  1.0000
  H   H61       1.0  0.25212  0.81955  0.16783  1.0000
  H   H62       1.0  0.29780  0.86502  0.20593  1.0000
  C   C120      1.0  0.21144  0.77729  0.27692  1.0000
  H   H63       1.0  0.20653  0.77333  0.21182  1.0000
  C   C121      1.0  0.77757  0.60129  0.30174  1.0000
  C   C122      1.0  0.79794  0.60219  0.23466  1.0000
  C   C123      1.0  0.82501  0.60233  0.25736  1.0000
  H   H64       1.0  0.79317  0.60257  0.16784  1.0000
  H   H65       1.0  0.83884  0.60284  0.20622  1.0000
  C   C124      1.0  0.75063  0.60061  0.27670  1.0000
  H   H66       1.0  0.74667  0.60147  0.21156  1.0000
  C   C125      1.0  0.49510  0.26301  0.30086  1.0000
  C   C126      1.0  0.49421  0.28241  0.23376  1.0000
  C   C127      1.0  0.49406  0.30937  0.25644  1.0000
  H   H67       1.0  0.49385  0.27720  0.16694  1.0000
  H   H68       1.0  0.49356  0.32263  0.20529  1.0000
  C   C128      1.0  0.49580  0.23673  0.27583  1.0000
  H   H69       1.0  0.49500  0.23188  0.21070  1.0000
  C   C129      1.0  0.83341  0.31884  0.30177  1.0000
  C   C130      1.0  0.81406  0.29850  0.23456  1.0000
  C   C131      1.0  0.78709  0.27140  0.25708  1.0000
  H   H70       1.0  0.81933  0.30329  0.16777  1.0000
  H   H71       1.0  0.77387  0.25760  0.20586  1.0000
  C   C132      1.0  0.85970  0.34581  0.27689  1.0000
  H   H72       1.0  0.86459  0.34982  0.21178  1.0000
  C   C133      1.0  0.94067  0.59029  0.40604  1.0000
  C   C134      1.0  0.91490  0.59402  0.40518  1.0000
  C   C135      1.0  0.94378  0.43715  0.40647  1.0000
  C   C136      1.0  0.91811  0.40756  0.40737  1.0000
  C   C137      1.0  0.15568  0.52932  0.40521  1.0000
  C   C138      1.0  0.13003  0.53323  0.40609  1.0000
  C   C139      1.0  0.12697  0.68628  0.40644  1.0000
  C   C140      1.0  0.15272  0.71581  0.40734  1.0000
  H   H73       1.0  0.16090  0.72640  0.46800  1.0000
  H   H74       1.0  0.11723  0.67601  0.46632  1.0000
  H   H75       1.0  0.12299  0.53772  0.46595  1.0000
  H   H76       1.0  0.16644  0.53094  0.46480  1.0000
  H   H77       1.0  0.95351  0.44744  0.46633  1.0000
  H   H78       1.0  0.90999  0.39694  0.46800  1.0000
  H   H79       1.0  0.90410  0.59241  0.46479  1.0000
  H   H80       1.0  0.94773  0.58593  0.46593  1.0000
  C   C141      1.0  0.50612  0.43722  0.40510  1.0000
  C   C142      1.0  0.50243  0.40774  0.40421  1.0000
  C   C143      1.0  0.65923  0.59350  0.40575  1.0000
  C   C144      1.0  0.68881  0.59741  0.40680  1.0000
  C   C145      1.0  0.56707  0.71320  0.40424  1.0000
  C   C146      1.0  0.56318  0.68364  0.40512  1.0000
  C   C147      1.0  0.41016  0.52752  0.40580  1.0000
  C   C148      1.0  0.38063  0.52373  0.40684  1.0000
  H   H81       1.0  0.37005  0.52137  0.46754  1.0000
  H   H82       1.0  0.42045  0.52811  0.46562  1.0000
  H   H83       1.0  0.55866  0.67217  0.46498  1.0000
  H   H84       1.0  0.56543  0.72239  0.46381  1.0000
  H   H85       1.0  0.64889  0.59295  0.46557  1.0000
  H   H86       1.0  0.69939  0.59995  0.46750  1.0000
  H   H87       1.0  0.50400  0.39859  0.46383  1.0000
  H   H88       1.0  0.51051  0.44872  0.46496  1.0000
  C   C149      1.0  0.65913  0.15571  0.40492  1.0000
  C   C150      1.0  0.68863  0.18148  0.40424  1.0000
  C   C151      1.0  0.50292  0.15260  0.40509  1.0000
  C   C152      1.0  0.49895  0.17824  0.40606  1.0000
  C   C153      1.0  0.38325  0.94077  0.40431  1.0000
  C   C154      1.0  0.41282  0.96642  0.40498  1.0000
  C   C155      1.0  0.56889  0.96947  0.40507  1.0000
  C   C156      1.0  0.57264  0.94371  0.40606  1.0000
  H   H89       1.0  0.57504  0.93557  0.46674  1.0000
  H   H90       1.0  0.56830  0.97923  0.46491  1.0000
  H   H91       1.0  0.42433  0.97347  0.46477  1.0000
  H   H92       1.0  0.37412  0.93001  0.46393  1.0000
  H   H93       1.0  0.50341  0.14284  0.46491  1.0000
  H   H94       1.0  0.49641  0.18635  0.46673  1.0000
  H   H95       1.0  0.69772  0.19224  0.46392  1.0000
  H   H96       1.0  0.64761  0.14863  0.46473  1.0000
  C   C157      1.0  0.25732  0.52141  0.41551  1.0000
  C   C158      1.0  0.28428  0.52127  0.39279  1.0000
  C   C159      1.0  0.23716  0.52080  0.34842  1.0000
  H   H97       1.0  0.29813  0.52192  0.44391  1.0000
  H   H98       1.0  0.25269  0.52218  0.48231  1.0000
  C   C160      1.0  0.21089  0.52152  0.37338  1.0000
  H   H99       1.0  0.20636  0.52135  0.43856  1.0000
  C   C161      1.0  0.57498  0.82275  0.41458  1.0000
  C   C162      1.0  0.57511  0.84983  0.39188  1.0000
  C   C163      1.0  0.57560  0.80314  0.34747  1.0000
  H   H100      1.0  0.57446  0.86307  0.44302  1.0000
  H   H101      1.0  0.57420  0.81740  0.48137  1.0000
  C   C164      1.0  0.57487  0.77616  0.37241  1.0000
  H   H102      1.0  0.57505  0.77187  0.43760  1.0000
  C   C165      1.0  0.27373  0.83910  0.41531  1.0000
  C   C166      1.0  0.24662  0.81214  0.39277  1.0000
  C   C167      1.0  0.29329  0.85925  0.34810  1.0000
  H   H103      1.0  0.23341  0.79831  0.44397  1.0000
  H   H104      1.0  0.27912  0.84376  0.48207  1.0000
  C   C168      1.0  0.32029  0.88553  0.37288  1.0000
  H   H105      1.0  0.32464  0.89007  0.43803  1.0000
  C   C169      1.0  0.81264  0.60082  0.41546  1.0000
  C   C170      1.0  0.78555  0.60067  0.39275  1.0000
  C   C171      1.0  0.83294  0.60158  0.34836  1.0000
  H   H106      1.0  0.77162  0.59994  0.44388  1.0000
  H   H107      1.0  0.81727  0.60016  0.48226  1.0000
  C   C172      1.0  0.85934  0.60115  0.37332  1.0000
  H   H108      1.0  0.86384  0.60141  0.43850  1.0000
  C   C173      1.0  0.49555  0.29866  0.41455  1.0000
  C   C174      1.0  0.49571  0.27170  0.39186  1.0000
  C   C175      1.0  0.49480  0.31813  0.34743  1.0000
  H   H109      1.0  0.49644  0.25856  0.44300  1.0000
  H   H110      1.0  0.49621  0.30402  0.48134  1.0000
  C   C176      1.0  0.49524  0.34499  0.37237  1.0000
  H   H111      1.0  0.49497  0.34930  0.43755  1.0000
  C   C177      1.0  0.79769  0.28372  0.41525  1.0000
  C   C178      1.0  0.82465  0.31082  0.39273  1.0000
  C   C179      1.0  0.77827  0.26344  0.34803  1.0000
  H   H112      1.0  0.83775  0.32474  0.44393  1.0000
  H   H113      1.0  0.79227  0.27907  0.48201  1.0000
  C   C180      1.0  0.75139  0.23704  0.37281  1.0000
  H   H114      1.0  0.74703  0.23251  0.43795  1.0000
