data_image0
_chemical_formula_structural       C4OHOHC4OHOHC4OHOHC2O2H2C2O2H2C2O2H2NC18H12NC18H12NC18H12NC18H12C2O2H2C2O2H2C2O2H2C4OHOHC4OHOHC4OHOH
_chemical_formula_sum              "C108 O24 H72 N4"
_cell_length_a       38.9682
_cell_length_b       38.9682
_cell_length_c       14.8128
_cell_angle_alpha    90
_cell_angle_beta     90
_cell_angle_gamma    120

_space_group_name_H-M_alt    "P 1"
_space_group_IT_number       1

loop_
  _space_group_symop_operation_xyz
  'x, y, z'

loop_
  _atom_site_type_symbol
  _atom_site_label
  _atom_site_symmetry_multiplicity
  _atom_site_fract_x
  _atom_site_fract_y
  _atom_site_fract_z
  _atom_site_occupancy
  C   C1        1.0  0.25827  0.12928  0.36520  1.0000
  C   C2        1.0  0.23679  0.11954  0.28261  1.0000
  C   C3        1.0  0.19476  0.09831  0.28073  1.0000
  C   C4        1.0  0.17201  0.08668  0.36155  1.0000
  O   O1        1.0  0.17643  0.08644  0.19882  1.0000
  H   H1        1.0  0.18006  0.11029  0.16742  1.0000
  O   O2        1.0  0.25587  0.13068  0.20157  1.0000
  H   H2        1.0  0.26303  0.15848  0.19239  1.0000
  C   C5        1.0  0.87267  0.13144  0.34573  1.0000
  C   C6        1.0  0.86106  0.09805  0.28912  1.0000
  C   C7        1.0  0.88206  0.07703  0.28929  1.0000
  C   C8        1.0  0.91559  0.08859  0.34586  1.0000
  O   O3        1.0  0.86863  0.04497  0.23374  1.0000
  H   H3        1.0  0.85222  0.02158  0.27134  1.0000
  O   O4        1.0  0.83071  0.08712  0.22933  1.0000
  H   H4        1.0  0.80791  0.06304  0.25379  1.0000
  C   C9        1.0  0.87561  0.74595  0.32911  1.0000
  C   C10       1.0  0.88731  0.76871  0.24826  1.0000
  C   C11       1.0  0.90642  0.81064  0.24979  1.0000
  C   C12       1.0  0.91719  0.83217  0.33229  1.0000
  O   O5        1.0  0.91398  0.82968  0.16877  1.0000
  H   H5        1.0  0.89204  0.83481  0.15798  1.0000
  O   O6        1.0  0.88053  0.75097  0.16575  1.0000
  H   H6        1.0  0.90222  0.74541  0.15551  1.0000
  C   C13       1.0  0.58218  0.20277  0.32302  1.0000
  C   C14       1.0  0.61871  0.20331  0.31800  1.0000
  O   O7        1.0  0.57599  0.22679  0.26643  1.0000
  O   O8        1.0  0.64633  0.22802  0.25713  1.0000
  H   H7        1.0  0.56864  0.21340  0.20749  1.0000
  H   H8        1.0  0.63826  0.21482  0.19806  1.0000
  C   C15       1.0  0.84477  0.40437  0.24316  1.0000
  C   C16       1.0  0.84518  0.44085  0.23823  1.0000
  O   O9        1.0  0.86609  0.39701  0.18112  1.0000
  O   O10       1.0  0.86680  0.46697  0.17182  1.0000
  H   H9        1.0  0.89156  0.40428  0.21001  1.0000
  H   H10       1.0  0.89276  0.48529  0.19851  1.0000
  C   C17       1.0  0.61006  0.43177  0.26341  1.0000
  C   C18       1.0  0.57307  0.39609  0.26165  1.0000
  O   O11       1.0  0.62953  0.44534  0.18323  1.0000
  O   O12       1.0  0.55712  0.38149  0.17885  1.0000
  H   H11       1.0  0.61550  0.45624  0.14899  1.0000
  H   H12       1.0  0.53628  0.38834  0.16941  1.0000
  N   N1        1.0  0.00086  0.00329  0.34582  1.0000
  C   C19       1.0  0.04333  0.02483  0.35288  1.0000
  C   C20       1.0  0.97912  0.96082  0.33921  1.0000
  C   C21       1.0  0.97969  0.02451  0.34592  1.0000
  C   C22       1.0  0.96912  0.03546  0.26422  1.0000
  C   C23       1.0  0.94886  0.05701  0.26432  1.0000
  C   C24       1.0  0.93702  0.06720  0.34590  1.0000
  C   C25       1.0  0.94722  0.05538  0.42749  1.0000
  C   C26       1.0  0.96875  0.03510  0.42760  1.0000
  C   C27       1.0  0.06366  0.01317  0.41348  1.0000
  C   C28       1.0  0.10548  0.03269  0.41505  1.0000
  C   C29       1.0  0.12908  0.06605  0.35955  1.0000
  C   C30       1.0  0.10834  0.07833  0.30135  1.0000
  C   C31       1.0  0.06664  0.05753  0.29606  1.0000
  C   C32       1.0  0.98994  0.94032  0.27712  1.0000
  C   C33       1.0  0.97030  0.89848  0.27594  1.0000
  C   C34       1.0  0.93768  0.87509  0.33360  1.0000
  C   C35       1.0  0.92616  0.89602  0.39315  1.0000
  C   C36       1.0  0.94708  0.93773  0.39783  1.0000
  H   H13       1.0  0.11860  0.02165  0.45658  1.0000
  H   H14       1.0  0.04795  0.98917  0.45447  1.0000
  H   H15       1.0  0.05331  0.06705  0.25112  1.0000
  H   H16       1.0  0.12351  0.10283  0.26150  1.0000
  H   H17       1.0  0.97695  0.02846  0.20403  1.0000
  H   H18       1.0  0.94305  0.06550  0.20354  1.0000
  H   H19       1.0  0.01345  0.95591  0.23476  1.0000
  H   H20       1.0  0.98066  0.88518  0.23299  1.0000
  H   H21       1.0  0.90215  0.88101  0.43447  1.0000
  H   H22       1.0  0.93818  0.95122  0.44383  1.0000
  H   H23       1.0  0.97579  0.02732  0.48781  1.0000
  H   H24       1.0  0.93874  0.06121  0.48826  1.0000
  N   N2        1.0  0.42993  0.21426  0.37017  1.0000
  C   C37       1.0  0.45437  0.25579  0.35043  1.0000
  C   C38       1.0  0.38732  0.19331  0.36824  1.0000
  C   C39       1.0  0.45188  0.19448  0.38773  1.0000
  C   C40       1.0  0.47606  0.20440  0.46556  1.0000
  C   C41       1.0  0.50828  0.19746  0.46944  1.0000
  C   C42       1.0  0.51727  0.18043  0.39529  1.0000
  C   C43       1.0  0.49135  0.16781  0.32036  1.0000
  C   C44       1.0  0.45934  0.17488  0.31656  1.0000
  C   C45       1.0  0.45707  0.28518  0.41063  1.0000
  C   C46       1.0  0.48754  0.32498  0.40301  1.0000
  C   C47       1.0  0.51886  0.33680  0.33999  1.0000
  C   C48       1.0  0.51528  0.30739  0.27808  1.0000
  C   C49       1.0  0.48296  0.26838  0.28064  1.0000
  C   C50       1.0  0.36508  0.20208  0.42999  1.0000
  C   C51       1.0  0.32330  0.18207  0.42733  1.0000
  C   C52       1.0  0.30124  0.15043  0.36649  1.0000
  C   C53       1.0  0.32366  0.14082  0.30677  1.0000
  C   C54       1.0  0.36549  0.16232  0.30613  1.0000
  H   H25       1.0  0.48771  0.34488  0.44813  1.0000
  H   H26       1.0  0.43843  0.27772  0.46427  1.0000
  H   H27       1.0  0.48303  0.24811  0.23704  1.0000
  H   H28       1.0  0.53747  0.31328  0.23320  1.0000
  H   H29       1.0  0.47293  0.22062  0.51583  1.0000
  H   H30       1.0  0.52726  0.20833  0.52319  1.0000
  H   H31       1.0  0.37900  0.22326  0.47794  1.0000
  H   H32       1.0  0.30911  0.19120  0.47080  1.0000
  H   H33       1.0  0.30966  0.11767  0.26275  1.0000
  H   H34       1.0  0.37984  0.15454  0.26019  1.0000
  H   H35       1.0  0.44489  0.17019  0.25645  1.0000
  H   H36       1.0  0.49750  0.15632  0.26459  1.0000
  N   N3        1.0  0.78697  0.21699  0.34523  1.0000
  C   C55       1.0  0.74534  0.19925  0.36143  1.0000
  C   C56       1.0  0.80840  0.19561  0.34540  1.0000
  C   C57       1.0  0.80472  0.25863  0.32907  1.0000
  C   C58       1.0  0.79741  0.27258  0.24731  1.0000
  C   C59       1.0  0.80503  0.31181  0.23974  1.0000
  C   C60       1.0  0.82039  0.33830  0.31358  1.0000
  C   C61       1.0  0.83002  0.32491  0.39338  1.0000
  C   C62       1.0  0.82225  0.28562  0.40109  1.0000
  C   C63       1.0  0.71834  0.18170  0.28942  1.0000
  C   C64       1.0  0.67903  0.17387  0.29716  1.0000
  C   C65       1.0  0.66564  0.18351  0.37695  1.0000
  C   C66       1.0  0.69214  0.19891  0.45076  1.0000
  C   C67       1.0  0.73139  0.20657  0.44316  1.0000
  C   C68       1.0  0.78940  0.15447  0.36456  1.0000
  C   C69       1.0  0.81028  0.13352  0.36464  1.0000
  C   C70       1.0  0.85134  0.15274  0.34565  1.0000
  C   C71       1.0  0.87054  0.19379  0.32652  1.0000
  C   C72       1.0  0.84956  0.21463  0.32635  1.0000
  H   H37       1.0  0.66080  0.16295  0.24216  1.0000
  H   H38       1.0  0.72804  0.17733  0.22867  1.0000
  H   H39       1.0  0.75067  0.22047  0.49521  1.0000
  H   H40       1.0  0.68395  0.20729  0.50863  1.0000
  H   H41       1.0  0.78354  0.25331  0.19524  1.0000
  H   H42       1.0  0.79667  0.32002  0.18186  1.0000
  H   H43       1.0  0.75984  0.13912  0.37926  1.0000
  H   H44       1.0  0.79521  0.10396  0.38008  1.0000
  H   H45       1.0  0.90011  0.20888  0.31118  1.0000
  H   H46       1.0  0.86489  0.24419  0.31156  1.0000
  H   H47       1.0  0.82652  0.27590  0.46192  1.0000
  H   H48       1.0  0.84081  0.34309  0.44849  1.0000
  N   N4        1.0  0.78990  0.57432  0.32059  1.0000
  C   C73       1.0  0.80949  0.55215  0.30341  1.0000
  C   C74       1.0  0.81099  0.61694  0.32340  1.0000
  C   C75       1.0  0.74831  0.54997  0.33957  1.0000
  C   C76       1.0  0.73540  0.52178  0.41023  1.0000
  C   C77       1.0  0.69640  0.48944  0.41231  1.0000
  C   C78       1.0  0.66735  0.48550  0.34888  1.0000
  C   C79       1.0  0.67946  0.51650  0.28485  1.0000
  C   C80       1.0  0.71929  0.54696  0.27779  1.0000
  C   C81       1.0  0.82840  0.54420  0.37534  1.0000
  C   C82       1.0  0.83543  0.51217  0.37150  1.0000
  C   C83       1.0  0.82323  0.48656  0.29603  1.0000
  C   C84       1.0  0.80672  0.49593  0.22146  1.0000
  C   C85       1.0  0.80005  0.52833  0.22510  1.0000
  C   C86       1.0  0.84227  0.63840  0.38511  1.0000
  C   C87       1.0  0.86392  0.68022  0.38541  1.0000
  C   C88       1.0  0.85420  0.70300  0.32718  1.0000
  C   C89       1.0  0.82234  0.68135  0.26658  1.0000
  C   C90       1.0  0.80209  0.63956  0.26308  1.0000
  H   H49       1.0  0.84652  0.50577  0.42762  1.0000
  H   H50       1.0  0.83274  0.55845  0.43562  1.0000
  H   H51       1.0  0.78423  0.53180  0.17436  1.0000
  H   H52       1.0  0.79628  0.47727  0.16709  1.0000
  H   H53       1.0  0.75545  0.52198  0.45493  1.0000
  H   H54       1.0  0.69026  0.46749  0.45807  1.0000
  H   H55       1.0  0.85025  0.62382  0.42990  1.0000
  H   H56       1.0  0.88738  0.69390  0.42868  1.0000
  H   H57       1.0  0.81335  0.69588  0.22374  1.0000
  H   H58       1.0  0.78062  0.62591  0.21558  1.0000
  H   H59       1.0  0.72713  0.56521  0.22329  1.0000
  H   H60       1.0  0.65986  0.51598  0.23835  1.0000
  C   C91       1.0  0.19339  0.09661  0.44422  1.0000
  C   C92       1.0  0.23549  0.11755  0.44601  1.0000
  O   O13       1.0  0.17365  0.08882  0.52447  1.0000
  O   O14       1.0  0.25380  0.12327  0.52770  1.0000
  H   H61       1.0  0.17646  0.06782  0.55442  1.0000
  H   H62       1.0  0.25007  0.14313  0.56046  1.0000
  C   C93       1.0  0.92710  0.12213  0.40237  1.0000
  C   C94       1.0  0.90605  0.14310  0.40241  1.0000
  O   O15       1.0  0.95915  0.13559  0.45799  1.0000
  O   O16       1.0  0.91694  0.17347  0.46213  1.0000
  H   H63       1.0  0.98255  0.15202  0.42042  1.0000
  H   H64       1.0  0.94102  0.19627  0.43766  1.0000
  C   C95       1.0  0.90633  0.80951  0.41326  1.0000
  C   C96       1.0  0.88604  0.76742  0.41171  1.0000
  O   O17       1.0  0.91811  0.82803  0.49498  1.0000
  O   O18       1.0  0.87369  0.74779  0.49203  1.0000
  H   H65       1.0  0.89410  0.82369  0.52686  1.0000
  H   H66       1.0  0.89744  0.75139  0.52380  1.0000
  C   C97       1.0  0.62792  0.18140  0.38022  1.0000
  C   C98       1.0  0.59964  0.15913  0.44782  1.0000
  C   C99       1.0  0.56314  0.15865  0.45295  1.0000
  C   C100      1.0  0.55391  0.18041  0.39055  1.0000
  O   O19       1.0  0.53717  0.13721  0.51977  1.0000
  H   H67       1.0  0.51884  0.11116  0.49350  1.0000
  O   O20       1.0  0.60716  0.13798  0.51004  1.0000
  H   H68       1.0  0.59993  0.11247  0.48139  1.0000
  C   C101      1.0  0.82322  0.44991  0.30045  1.0000
  C   C102      1.0  0.80072  0.42147  0.36757  1.0000
  C   C103      1.0  0.80027  0.38498  0.37243  1.0000
  C   C104      1.0  0.82238  0.37596  0.31041  1.0000
  O   O21       1.0  0.77543  0.35722  0.43292  1.0000
  H   H69       1.0  0.78851  0.36517  0.49214  1.0000
  O   O22       1.0  0.77649  0.42747  0.42390  1.0000
  H   H70       1.0  0.78964  0.43458  0.48314  1.0000
  C   C105      1.0  0.55390  0.37576  0.34234  1.0000
  C   C106      1.0  0.57201  0.39466  0.42516  1.0000
  C   C107      1.0  0.60764  0.43169  0.42685  1.0000
  C   C108      1.0  0.62843  0.45041  0.34625  1.0000
  O   O23       1.0  0.62172  0.44815  0.50952  1.0000
  H   H71       1.0  0.61476  0.46900  0.51724  1.0000
  O   O24       1.0  0.55805  0.37565  0.50570  1.0000
  H   H72       1.0  0.54688  0.38981  0.53843  1.0000
