data_image0
_chemical_formula_structural       NC2OCH3NC2OHCH3NC2OCH3NC18H12NC18H12CNCOCH3CNCOCH2CNCOCH3NC2OCH3NC2OHCH3NC2OCH3NC18H12NC18H12CNCOCH3CNCOCH2CNCOCH3NC2OCH3NC2OHCH3NC2OCH3NC18H12NC18H12CNCOCH3CNCOCH2CNCOCH3NC2OCH3NC2OHCH3NC2OCH3NC18H12NC18H12CNCOCH3CNCOCH2CNCOCH3
_chemical_formula_sum              "N32 C216 O24 H168"
_cell_length_a       50.2184
_cell_length_b       50.2185
_cell_length_c       14.5722
_cell_angle_alpha    90
_cell_angle_beta     90
_cell_angle_gamma    120

_space_group_name_H-M_alt    "P 1"
_space_group_IT_number       1

loop_
  _space_group_symop_operation_xyz
  'x, y, z'

loop_
  _atom_site_type_symbol
  _atom_site_label
  _atom_site_symmetry_multiplicity
  _atom_site_fract_x
  _atom_site_fract_y
  _atom_site_fract_z
  _atom_site_occupancy
  N   N1        1.0  0.28239  0.25856  0.28987  1.0000
  C   C1        1.0  0.26666  0.27406  0.27852  1.0000
  C   C2        1.0  0.25431  0.28093  0.35687  1.0000
  O   O1        1.0  0.26673  0.28573  0.19353  1.0000
  C   C3        1.0  0.25220  0.26292  0.12279  1.0000
  H   H1        1.0  0.26453  0.25048  0.11056  1.0000
  H   H2        1.0  0.25252  0.27465  0.05948  1.0000
  H   H3        1.0  0.22827  0.24655  0.13986  1.0000
  N   N2        1.0  0.28360  0.03267  0.28842  1.0000
  C   C4        1.0  0.26817  0.50146  0.27782  1.0000
  C   C5        1.0  0.25622  0.48215  0.35628  1.0000
  O   O2        1.0  0.26467  0.49067  0.19003  1.0000
  H   H4        1.0  0.29035  0.04403  0.00010  1.0000
  C   C6        1.0  0.23804  0.48814  0.14485  1.0000
  H   H5        1.0  0.23658  0.47857  0.07668  1.0000
  H   H6        1.0  0.23987  0.51064  0.13697  1.0000
  H   H7        1.0  0.21690  0.47271  0.18178  1.0000
  N   N3        1.0  0.50396  0.25941  0.28787  1.0000
  C   C7        1.0  0.03517  0.27521  0.27701  1.0000
  C   C8        1.0  0.05456  0.28251  0.35524  1.0000
  O   O3        1.0  0.04589  0.28255  0.18917  1.0000
  C   C9        1.0  0.04864  0.25859  0.14397  1.0000
  H   H8        1.0  0.02622  0.23782  0.13603  1.0000
  H   H9        1.0  0.06417  0.25300  0.18091  1.0000
  H   H10       1.0  0.05821  0.26675  0.07584  1.0000
  N   N4        1.0  0.18830  0.34844  0.36451  1.0000
  C   C10       1.0  0.20450  0.33153  0.36260  1.0000
  C   C11       1.0  0.20536  0.38157  0.36281  1.0000
  C   C12       1.0  0.15518  0.33218  0.36164  1.0000
  C   C13       1.0  0.13735  0.31210  0.43300  1.0000
  C   C14       1.0  0.10480  0.29603  0.43001  1.0000
  C   C15       1.0  0.08809  0.29916  0.35594  1.0000
  C   C16       1.0  0.10642  0.32004  0.28587  1.0000
  C   C17       1.0  0.13896  0.33580  0.28799  1.0000
  C   C18       1.0  0.20355  0.31429  0.28482  1.0000
  C   C19       1.0  0.21965  0.29786  0.28257  1.0000
  C   C20       1.0  0.23778  0.29786  0.35748  1.0000
  C   C21       1.0  0.23811  0.31492  0.43581  1.0000
  C   C22       1.0  0.22206  0.33143  0.43823  1.0000
  C   C23       1.0  0.22520  0.39782  0.28920  1.0000
  C   C24       1.0  0.24197  0.43034  0.28715  1.0000
  C   C25       1.0  0.23938  0.44863  0.35723  1.0000
  C   C26       1.0  0.21955  0.43191  0.43131  1.0000
  C   C27       1.0  0.20306  0.39935  0.43423  1.0000
  H   H11       1.0  0.21705  0.28501  0.22557  1.0000
  H   H12       1.0  0.19084  0.31350  0.22897  1.0000
  H   H13       1.0  0.22323  0.34352  0.49604  1.0000
  H   H14       1.0  0.25061  0.31592  0.49247  1.0000
  H   H15       1.0  0.14814  0.30891  0.48789  1.0000
  H   H16       1.0  0.09330  0.28154  0.48333  1.0000
  H   H17       1.0  0.22787  0.38587  0.23662  1.0000
  H   H18       1.0  0.25687  0.44040  0.23390  1.0000
  H   H19       1.0  0.21654  0.44340  0.48461  1.0000
  H   H20       1.0  0.18900  0.38852  0.48895  1.0000
  H   H21       1.0  0.15095  0.35050  0.23559  1.0000
  H   H22       1.0  0.09637  0.32488  0.23261  1.0000
  N   N5        1.0  0.35495  0.18174  0.36102  1.0000
  C   C28       1.0  0.33808  0.19798  0.36367  1.0000
  C   C29       1.0  0.33875  0.14865  0.36284  1.0000
  C   C30       1.0  0.38803  0.19845  0.36347  1.0000
  C   C31       1.0  0.40435  0.21569  0.44124  1.0000
  C   C32       1.0  0.43688  0.23210  0.44339  1.0000
  C   C33       1.0  0.45499  0.23211  0.36837  1.0000
  C   C34       1.0  0.43824  0.21505  0.29009  1.0000
  C   C35       1.0  0.40568  0.19856  0.28778  1.0000
  C   C36       1.0  0.31843  0.19454  0.43768  1.0000
  C   C37       1.0  0.30166  0.21030  0.43989  1.0000
  C   C38       1.0  0.30404  0.23102  0.36952  1.0000
  C   C39       1.0  0.32371  0.23399  0.29511  1.0000
  C   C40       1.0  0.34019  0.21793  0.29206  1.0000
  C   C41       1.0  0.33967  0.13240  0.44077  1.0000
  C   C42       1.0  0.32357  0.09987  0.44321  1.0000
  C   C43       1.0  0.30544  0.08171  0.36835  1.0000
  C   C44       1.0  0.30513  0.09840  0.28988  1.0000
  C   C45       1.0  0.32119  0.13096  0.28726  1.0000
  H   H23       1.0  0.28691  0.20559  0.49348  1.0000
  H   H24       1.0  0.31586  0.17998  0.49037  1.0000
  H   H25       1.0  0.35405  0.22099  0.23695  1.0000
  H   H26       1.0  0.32656  0.24835  0.24156  1.0000
  H   H27       1.0  0.39243  0.21651  0.49706  1.0000
  H   H28       1.0  0.44716  0.24496  0.50035  1.0000
  H   H29       1.0  0.35236  0.14435  0.49663  1.0000
  H   H30       1.0  0.32614  0.08966  0.50033  1.0000
  H   H31       1.0  0.29263  0.08686  0.23325  1.0000
  H   H32       1.0  0.32003  0.14185  0.22938  1.0000
  H   H33       1.0  0.39475  0.18652  0.22990  1.0000
  H   H34       1.0  0.44972  0.21407  0.23336  1.0000
  C   C46       1.0  0.28714  0.24764  0.37033  1.0000
  N   N6        1.0  0.25973  0.27080  0.43782  1.0000
  C   C47       1.0  0.27520  0.25508  0.44866  1.0000
  O   O4        1.0  0.27878  0.24793  0.53654  1.0000
  C   C48       1.0  0.30534  0.27215  0.58160  1.0000
  H   H35       1.0  0.30685  0.26415  0.64989  1.0000
  H   H36       1.0  0.30339  0.29276  0.58921  1.0000
  H   H37       1.0  0.32651  0.27792  0.54474  1.0000
  C   C49       1.0  0.28893  0.04826  0.36922  1.0000
  N   N7        1.0  0.26084  0.49787  0.43658  1.0000
  C   C50       1.0  0.27651  0.02910  0.44769  1.0000
  O   O5        1.0  0.27634  0.04079  0.53247  1.0000
  C   C51       1.0  0.29078  0.03258  0.60366  1.0000
  H   H38       1.0  0.27843  0.00781  0.61606  1.0000
  H   H39       1.0  0.31473  0.04013  0.58700  1.0000
  C   C52       1.0  0.48845  0.24908  0.36880  1.0000
  N   N8        1.0  0.03891  0.27134  0.43562  1.0000
  C   C53       1.0  0.50769  0.25577  0.44702  1.0000
  O   O6        1.0  0.49607  0.24381  0.53176  1.0000
  C   C54       1.0  0.50430  0.26637  0.60321  1.0000
  H   H40       1.0  0.49294  0.25443  0.66630  1.0000
  H   H41       1.0  0.49667  0.28275  0.58698  1.0000
  H   H42       1.0  0.52908  0.27884  0.61535  1.0000
  N   N9        1.0  0.28239  0.75856  0.28987  1.0000
  C   C55       1.0  0.26667  0.77406  0.27852  1.0000
  C   C56       1.0  0.25430  0.78093  0.35687  1.0000
  O   O7        1.0  0.26673  0.78573  0.19353  1.0000
  C   C57       1.0  0.25220  0.76292  0.12279  1.0000
  H   H43       1.0  0.26453  0.75048  0.11056  1.0000
  H   H44       1.0  0.25252  0.77465  0.05948  1.0000
  H   H45       1.0  0.22827  0.74655  0.13986  1.0000
  N   N10       1.0  0.28360  0.53267  0.28842  1.0000
  C   C58       1.0  0.26818  0.00146  0.27782  1.0000
  C   C59       1.0  0.25622  0.98215  0.35628  1.0000
  O   O8        1.0  0.26467  0.99067  0.19003  1.0000
  H   H46       1.0  0.29035  0.54402  0.00010  1.0000
  C   C60       1.0  0.23804  0.98814  0.14485  1.0000
  H   H47       1.0  0.23658  0.97857  0.07668  1.0000
  H   H48       1.0  0.23987  0.01064  0.13697  1.0000
  H   H49       1.0  0.21690  0.97271  0.18178  1.0000
  N   N11       1.0  0.50397  0.75941  0.28787  1.0000
  C   C61       1.0  0.03517  0.77522  0.27701  1.0000
  C   C62       1.0  0.05456  0.78251  0.35524  1.0000
  O   O9        1.0  0.04589  0.78255  0.18917  1.0000
  C   C63       1.0  0.04865  0.75858  0.14397  1.0000
  H   H50       1.0  0.02622  0.73782  0.13602  1.0000
  H   H51       1.0  0.06417  0.75300  0.18091  1.0000
  H   H52       1.0  0.05821  0.76675  0.07584  1.0000
  N   N12       1.0  0.18830  0.84844  0.36451  1.0000
  C   C64       1.0  0.20450  0.83153  0.36260  1.0000
  C   C65       1.0  0.20536  0.88157  0.36281  1.0000
  C   C66       1.0  0.15518  0.83218  0.36164  1.0000
  C   C67       1.0  0.13735  0.81210  0.43300  1.0000
  C   C68       1.0  0.10480  0.79602  0.43001  1.0000
  C   C69       1.0  0.08809  0.79915  0.35594  1.0000
  C   C70       1.0  0.10642  0.82004  0.28587  1.0000
  C   C71       1.0  0.13896  0.83580  0.28799  1.0000
  C   C72       1.0  0.20355  0.81429  0.28482  1.0000
  C   C73       1.0  0.21965  0.79785  0.28257  1.0000
  C   C74       1.0  0.23778  0.79785  0.35748  1.0000
  C   C75       1.0  0.23811  0.81492  0.43581  1.0000
  C   C76       1.0  0.22206  0.83143  0.43823  1.0000
  C   C77       1.0  0.22520  0.89782  0.28920  1.0000
  C   C78       1.0  0.24197  0.93034  0.28715  1.0000
  C   C79       1.0  0.23938  0.94863  0.35723  1.0000
  C   C80       1.0  0.21955  0.93191  0.43131  1.0000
  C   C81       1.0  0.20306  0.89935  0.43423  1.0000
  H   H53       1.0  0.21705  0.78501  0.22557  1.0000
  H   H54       1.0  0.19084  0.81351  0.22897  1.0000
  H   H55       1.0  0.22323  0.84352  0.49604  1.0000
  H   H56       1.0  0.25061  0.81592  0.49247  1.0000
  H   H57       1.0  0.14814  0.80891  0.48789  1.0000
  H   H58       1.0  0.09330  0.78154  0.48333  1.0000
  H   H59       1.0  0.22787  0.88587  0.23662  1.0000
  H   H60       1.0  0.25687  0.94040  0.23390  1.0000
  H   H61       1.0  0.21654  0.94340  0.48461  1.0000
  H   H62       1.0  0.18900  0.88852  0.48895  1.0000
  H   H63       1.0  0.15095  0.85050  0.23559  1.0000
  H   H64       1.0  0.09637  0.82488  0.23261  1.0000
  N   N13       1.0  0.35494  0.68173  0.36102  1.0000
  C   C82       1.0  0.33808  0.69798  0.36367  1.0000
  C   C83       1.0  0.33875  0.64865  0.36284  1.0000
  C   C84       1.0  0.38803  0.69845  0.36347  1.0000
  C   C85       1.0  0.40435  0.71569  0.44124  1.0000
  C   C86       1.0  0.43689  0.73210  0.44339  1.0000
  C   C87       1.0  0.45499  0.73211  0.36837  1.0000
  C   C88       1.0  0.43824  0.71505  0.29009  1.0000
  C   C89       1.0  0.40568  0.69856  0.28778  1.0000
  C   C90       1.0  0.31843  0.69454  0.43768  1.0000
  C   C91       1.0  0.30166  0.71030  0.43989  1.0000
  C   C92       1.0  0.30404  0.73102  0.36952  1.0000
  C   C93       1.0  0.32371  0.73399  0.29511  1.0000
  C   C94       1.0  0.34019  0.71793  0.29206  1.0000
  C   C95       1.0  0.33967  0.63240  0.44077  1.0000
  C   C96       1.0  0.32356  0.59987  0.44321  1.0000
  C   C97       1.0  0.30544  0.58171  0.36835  1.0000
  C   C98       1.0  0.30513  0.59840  0.28988  1.0000
  C   C99       1.0  0.32119  0.63096  0.28726  1.0000
  H   H65       1.0  0.28691  0.70559  0.49348  1.0000
  H   H66       1.0  0.31586  0.67998  0.49037  1.0000
  H   H67       1.0  0.35405  0.72099  0.23694  1.0000
  H   H68       1.0  0.32656  0.74835  0.24156  1.0000
  H   H69       1.0  0.39243  0.71651  0.49706  1.0000
  H   H70       1.0  0.44717  0.74496  0.50035  1.0000
  H   H71       1.0  0.35236  0.64435  0.49663  1.0000
  H   H72       1.0  0.32614  0.58966  0.50033  1.0000
  H   H73       1.0  0.29263  0.58686  0.23325  1.0000
  H   H74       1.0  0.32003  0.64185  0.22938  1.0000
  H   H75       1.0  0.39475  0.68653  0.22990  1.0000
  H   H76       1.0  0.44972  0.71407  0.23336  1.0000
  C   C100      1.0  0.28714  0.74764  0.37033  1.0000
  N   N14       1.0  0.25973  0.77080  0.43782  1.0000
  C   C101      1.0  0.27521  0.75508  0.44866  1.0000
  O   O10       1.0  0.27878  0.74792  0.53654  1.0000
  C   C102      1.0  0.30534  0.77215  0.58160  1.0000
  H   H77       1.0  0.30685  0.76415  0.64989  1.0000
  H   H78       1.0  0.30339  0.79276  0.58921  1.0000
  H   H79       1.0  0.32651  0.77792  0.54474  1.0000
  C   C103      1.0  0.28893  0.54826  0.36922  1.0000
  N   N15       1.0  0.26084  0.99787  0.43658  1.0000
  C   C104      1.0  0.27651  0.52910  0.44769  1.0000
  O   O11       1.0  0.27634  0.54079  0.53247  1.0000
  C   C105      1.0  0.29078  0.53258  0.60366  1.0000
  H   H80       1.0  0.27843  0.50781  0.61606  1.0000
  H   H81       1.0  0.31473  0.54013  0.58700  1.0000
  C   C106      1.0  0.48845  0.74908  0.36880  1.0000
  N   N16       1.0  0.03891  0.77134  0.43562  1.0000
  C   C107      1.0  0.50768  0.75577  0.44702  1.0000
  O   O12       1.0  0.49607  0.74381  0.53176  1.0000
  C   C108      1.0  0.50430  0.76637  0.60321  1.0000
  H   H82       1.0  0.49294  0.75443  0.66630  1.0000
  H   H83       1.0  0.49667  0.78275  0.58698  1.0000
  H   H84       1.0  0.52908  0.77884  0.61535  1.0000
  N   N17       1.0  0.78239  0.25856  0.28987  1.0000
  C   C109      1.0  0.76667  0.27406  0.27852  1.0000
  C   C110      1.0  0.75431  0.28093  0.35687  1.0000
  O   O13       1.0  0.76673  0.28573  0.19353  1.0000
  C   C111      1.0  0.75220  0.26292  0.12279  1.0000
  H   H85       1.0  0.76453  0.25048  0.11056  1.0000
  H   H86       1.0  0.75252  0.27465  0.05948  1.0000
  H   H87       1.0  0.72827  0.24655  0.13986  1.0000
  N   N18       1.0  0.78360  0.03267  0.28842  1.0000
  C   C112      1.0  0.76818  0.50146  0.27782  1.0000
  C   C113      1.0  0.75622  0.48215  0.35628  1.0000
  O   O14       1.0  0.76467  0.49067  0.19003  1.0000
  H   H88       1.0  0.79035  0.04403  0.00010  1.0000
  C   C114      1.0  0.73804  0.48814  0.14485  1.0000
  H   H89       1.0  0.73658  0.47857  0.07668  1.0000
  H   H90       1.0  0.73987  0.51064  0.13697  1.0000
  H   H91       1.0  0.71690  0.47271  0.18178  1.0000
  N   N19       1.0  0.00397  0.25941  0.28787  1.0000
  C   C115      1.0  0.53517  0.27521  0.27701  1.0000
  C   C116      1.0  0.55456  0.28251  0.35524  1.0000
  O   O15       1.0  0.54589  0.28255  0.18917  1.0000
  C   C117      1.0  0.54865  0.25859  0.14397  1.0000
  H   H92       1.0  0.52622  0.23782  0.13603  1.0000
  H   H93       1.0  0.56417  0.25300  0.18091  1.0000
  H   H94       1.0  0.55821  0.26675  0.07584  1.0000
  N   N20       1.0  0.68830  0.34844  0.36451  1.0000
  C   C118      1.0  0.70450  0.33153  0.36260  1.0000
  C   C119      1.0  0.70536  0.38157  0.36281  1.0000
  C   C120      1.0  0.65518  0.33218  0.36164  1.0000
  C   C121      1.0  0.63735  0.31210  0.43300  1.0000
  C   C122      1.0  0.60480  0.29603  0.43001  1.0000
  C   C123      1.0  0.58809  0.29916  0.35594  1.0000
  C   C124      1.0  0.60642  0.32004  0.28587  1.0000
  C   C125      1.0  0.63896  0.33580  0.28799  1.0000
  C   C126      1.0  0.70355  0.31429  0.28482  1.0000
  C   C127      1.0  0.71965  0.29786  0.28257  1.0000
  C   C128      1.0  0.73778  0.29786  0.35748  1.0000
  C   C129      1.0  0.73811  0.31492  0.43581  1.0000
  C   C130      1.0  0.72206  0.33143  0.43823  1.0000
  C   C131      1.0  0.72520  0.39782  0.28920  1.0000
  C   C132      1.0  0.74197  0.43034  0.28715  1.0000
  C   C133      1.0  0.73938  0.44863  0.35723  1.0000
  C   C134      1.0  0.71955  0.43191  0.43131  1.0000
  C   C135      1.0  0.70306  0.39935  0.43423  1.0000
  H   H95       1.0  0.71705  0.28501  0.22557  1.0000
  H   H96       1.0  0.69084  0.31350  0.22897  1.0000
  H   H97       1.0  0.72323  0.34352  0.49604  1.0000
  H   H98       1.0  0.75061  0.31592  0.49247  1.0000
  H   H99       1.0  0.64814  0.30891  0.48789  1.0000
  H   H100      1.0  0.59330  0.28154  0.48333  1.0000
  H   H101      1.0  0.72787  0.38587  0.23662  1.0000
  H   H102      1.0  0.75687  0.44040  0.23390  1.0000
  H   H103      1.0  0.71654  0.44340  0.48461  1.0000
  H   H104      1.0  0.68900  0.38852  0.48895  1.0000
  H   H105      1.0  0.65095  0.35050  0.23559  1.0000
  H   H106      1.0  0.59637  0.32488  0.23261  1.0000
  N   N21       1.0  0.85494  0.18174  0.36102  1.0000
  C   C136      1.0  0.83808  0.19798  0.36367  1.0000
  C   C137      1.0  0.83875  0.14865  0.36284  1.0000
  C   C138      1.0  0.88803  0.19845  0.36347  1.0000
  C   C139      1.0  0.90435  0.21569  0.44124  1.0000
  C   C140      1.0  0.93688  0.23210  0.44339  1.0000
  C   C141      1.0  0.95500  0.23211  0.36837  1.0000
  C   C142      1.0  0.93824  0.21505  0.29009  1.0000
  C   C143      1.0  0.90568  0.19856  0.28778  1.0000
  C   C144      1.0  0.81843  0.19454  0.43768  1.0000
  C   C145      1.0  0.80166  0.21030  0.43989  1.0000
  C   C146      1.0  0.80404  0.23102  0.36952  1.0000
  C   C147      1.0  0.82371  0.23399  0.29511  1.0000
  C   C148      1.0  0.84019  0.21793  0.29206  1.0000
  C   C149      1.0  0.83967  0.13240  0.44077  1.0000
  C   C150      1.0  0.82357  0.09987  0.44321  1.0000
  C   C151      1.0  0.80544  0.08171  0.36835  1.0000
  C   C152      1.0  0.80513  0.09840  0.28988  1.0000
  C   C153      1.0  0.82119  0.13096  0.28726  1.0000
  H   H107      1.0  0.78691  0.20559  0.49348  1.0000
  H   H108      1.0  0.81586  0.17998  0.49037  1.0000
  H   H109      1.0  0.85405  0.22099  0.23695  1.0000
  H   H110      1.0  0.82656  0.24835  0.24156  1.0000
  H   H111      1.0  0.89243  0.21651  0.49706  1.0000
  H   H112      1.0  0.94717  0.24496  0.50035  1.0000
  H   H113      1.0  0.85236  0.14435  0.49663  1.0000
  H   H114      1.0  0.82614  0.08966  0.50033  1.0000
  H   H115      1.0  0.79263  0.08686  0.23325  1.0000
  H   H116      1.0  0.82003  0.14185  0.22938  1.0000
  H   H117      1.0  0.89475  0.18652  0.22990  1.0000
  H   H118      1.0  0.94972  0.21407  0.23336  1.0000
  C   C154      1.0  0.78714  0.24764  0.37033  1.0000
  N   N22       1.0  0.75973  0.27080  0.43782  1.0000
  C   C155      1.0  0.77520  0.25508  0.44866  1.0000
  O   O16       1.0  0.77878  0.24793  0.53654  1.0000
  C   C156      1.0  0.80534  0.27215  0.58160  1.0000
  H   H119      1.0  0.80685  0.26415  0.64989  1.0000
  H   H120      1.0  0.80339  0.29276  0.58921  1.0000
  H   H121      1.0  0.82651  0.27792  0.54474  1.0000
  C   C157      1.0  0.78893  0.04826  0.36922  1.0000
  N   N23       1.0  0.76084  0.49787  0.43658  1.0000
  C   C158      1.0  0.77651  0.02910  0.44769  1.0000
  O   O17       1.0  0.77634  0.04079  0.53247  1.0000
  C   C159      1.0  0.79078  0.03258  0.60366  1.0000
  H   H122      1.0  0.77843  0.00781  0.61606  1.0000
  H   H123      1.0  0.81473  0.04013  0.58700  1.0000
  C   C160      1.0  0.98845  0.24908  0.36880  1.0000
  N   N24       1.0  0.53891  0.27134  0.43562  1.0000
  C   C161      1.0  0.00768  0.25577  0.44702  1.0000
  O   O18       1.0  0.99607  0.24381  0.53176  1.0000
  C   C162      1.0  0.00430  0.26637  0.60321  1.0000
  H   H124      1.0  0.99294  0.25443  0.66630  1.0000
  H   H125      1.0  0.99667  0.28275  0.58698  1.0000
  H   H126      1.0  0.02908  0.27884  0.61535  1.0000
  N   N25       1.0  0.78239  0.75856  0.28987  1.0000
  C   C163      1.0  0.76666  0.77406  0.27852  1.0000
  C   C164      1.0  0.75431  0.78093  0.35687  1.0000
  O   O19       1.0  0.76673  0.78573  0.19353  1.0000
  C   C165      1.0  0.75220  0.76292  0.12279  1.0000
  H   H127      1.0  0.76453  0.75048  0.11056  1.0000
  H   H128      1.0  0.75252  0.77465  0.05948  1.0000
  H   H129      1.0  0.72827  0.74655  0.13986  1.0000
  N   N26       1.0  0.78360  0.53267  0.28842  1.0000
  C   C166      1.0  0.76818  0.00146  0.27782  1.0000
  C   C167      1.0  0.75623  0.98215  0.35628  1.0000
  O   O20       1.0  0.76467  0.99067  0.19003  1.0000
  H   H130      1.0  0.79035  0.54402  0.00010  1.0000
  C   C168      1.0  0.73804  0.98814  0.14485  1.0000
  H   H131      1.0  0.73658  0.97857  0.07668  1.0000
  H   H132      1.0  0.73987  0.01064  0.13697  1.0000
  H   H133      1.0  0.71689  0.97271  0.18178  1.0000
  N   N27       1.0  0.00396  0.75941  0.28787  1.0000
  C   C169      1.0  0.53517  0.77522  0.27701  1.0000
  C   C170      1.0  0.55456  0.78251  0.35524  1.0000
  O   O21       1.0  0.54589  0.78255  0.18917  1.0000
  C   C171      1.0  0.54864  0.75858  0.14397  1.0000
  H   H134      1.0  0.52622  0.73782  0.13602  1.0000
  H   H135      1.0  0.56417  0.75300  0.18091  1.0000
  H   H136      1.0  0.55821  0.76675  0.07584  1.0000
  N   N28       1.0  0.68830  0.84844  0.36451  1.0000
  C   C172      1.0  0.70450  0.83153  0.36260  1.0000
  C   C173      1.0  0.70535  0.88157  0.36281  1.0000
  C   C174      1.0  0.65518  0.83218  0.36164  1.0000
  C   C175      1.0  0.63735  0.81210  0.43300  1.0000
  C   C176      1.0  0.60480  0.79602  0.43001  1.0000
  C   C177      1.0  0.58809  0.79915  0.35594  1.0000
  C   C178      1.0  0.60642  0.82004  0.28587  1.0000
  C   C179      1.0  0.63896  0.83580  0.28799  1.0000
  C   C180      1.0  0.70355  0.81429  0.28482  1.0000
  C   C181      1.0  0.71965  0.79785  0.28257  1.0000
  C   C182      1.0  0.73778  0.79785  0.35748  1.0000
  C   C183      1.0  0.73811  0.81492  0.43581  1.0000
  C   C184      1.0  0.72206  0.83143  0.43823  1.0000
  C   C185      1.0  0.72520  0.89782  0.28920  1.0000
  C   C186      1.0  0.74197  0.93034  0.28715  1.0000
  C   C187      1.0  0.73938  0.94863  0.35723  1.0000
  C   C188      1.0  0.71955  0.93191  0.43131  1.0000
  C   C189      1.0  0.70306  0.89935  0.43423  1.0000
  H   H137      1.0  0.71705  0.78501  0.22557  1.0000
  H   H138      1.0  0.69084  0.81351  0.22897  1.0000
  H   H139      1.0  0.72323  0.84352  0.49604  1.0000
  H   H140      1.0  0.75061  0.81592  0.49247  1.0000
  H   H141      1.0  0.64814  0.80891  0.48789  1.0000
  H   H142      1.0  0.59330  0.78154  0.48333  1.0000
  H   H143      1.0  0.72787  0.88587  0.23662  1.0000
  H   H144      1.0  0.75687  0.94040  0.23390  1.0000
  H   H145      1.0  0.71654  0.94340  0.48461  1.0000
  H   H146      1.0  0.68900  0.88852  0.48895  1.0000
  H   H147      1.0  0.65095  0.85050  0.23559  1.0000
  H   H148      1.0  0.59637  0.82488  0.23261  1.0000
  N   N29       1.0  0.85494  0.68173  0.36102  1.0000
  C   C190      1.0  0.83808  0.69798  0.36367  1.0000
  C   C191      1.0  0.83875  0.64865  0.36284  1.0000
  C   C192      1.0  0.88803  0.69845  0.36347  1.0000
  C   C193      1.0  0.90435  0.71569  0.44124  1.0000
  C   C194      1.0  0.93688  0.73210  0.44339  1.0000
  C   C195      1.0  0.95500  0.73211  0.36837  1.0000
  C   C196      1.0  0.93824  0.71505  0.29009  1.0000
  C   C197      1.0  0.90568  0.69856  0.28778  1.0000
  C   C198      1.0  0.81843  0.69454  0.43768  1.0000
  C   C199      1.0  0.80166  0.71030  0.43989  1.0000
  C   C200      1.0  0.80404  0.73102  0.36952  1.0000
  C   C201      1.0  0.82371  0.73399  0.29511  1.0000
  C   C202      1.0  0.84019  0.71793  0.29206  1.0000
  C   C203      1.0  0.83967  0.63240  0.44077  1.0000
  C   C204      1.0  0.82357  0.59987  0.44321  1.0000
  C   C205      1.0  0.80544  0.58171  0.36835  1.0000
  C   C206      1.0  0.80513  0.59840  0.28988  1.0000
  C   C207      1.0  0.82119  0.63096  0.28726  1.0000
  H   H149      1.0  0.78691  0.70559  0.49348  1.0000
  H   H150      1.0  0.81586  0.67998  0.49037  1.0000
  H   H151      1.0  0.85405  0.72099  0.23694  1.0000
  H   H152      1.0  0.82656  0.74835  0.24156  1.0000
  H   H153      1.0  0.89243  0.71651  0.49706  1.0000
  H   H154      1.0  0.94717  0.74496  0.50035  1.0000
  H   H155      1.0  0.85236  0.64435  0.49663  1.0000
  H   H156      1.0  0.82614  0.58966  0.50033  1.0000
  H   H157      1.0  0.79263  0.58686  0.23325  1.0000
  H   H158      1.0  0.82003  0.64185  0.22938  1.0000
  H   H159      1.0  0.89475  0.68653  0.22990  1.0000
  H   H160      1.0  0.94972  0.71407  0.23336  1.0000
  C   C208      1.0  0.78714  0.74764  0.37033  1.0000
  N   N30       1.0  0.75973  0.77080  0.43782  1.0000
  C   C209      1.0  0.77520  0.75508  0.44866  1.0000
  O   O22       1.0  0.77878  0.74792  0.53654  1.0000
  C   C210      1.0  0.80534  0.77215  0.58160  1.0000
  H   H161      1.0  0.80685  0.76415  0.64989  1.0000
  H   H162      1.0  0.80339  0.79276  0.58921  1.0000
  H   H163      1.0  0.82651  0.77792  0.54474  1.0000
  C   C211      1.0  0.78893  0.54826  0.36922  1.0000
  N   N31       1.0  0.76084  0.99787  0.43658  1.0000
  C   C212      1.0  0.77651  0.52910  0.44769  1.0000
  O   O23       1.0  0.77634  0.54079  0.53247  1.0000
  C   C213      1.0  0.79078  0.53258  0.60366  1.0000
  H   H164      1.0  0.77843  0.50781  0.61606  1.0000
  H   H165      1.0  0.81473  0.54013  0.58700  1.0000
  C   C214      1.0  0.98845  0.74908  0.36880  1.0000
  N   N32       1.0  0.53891  0.77134  0.43562  1.0000
  C   C215      1.0  0.00768  0.75577  0.44702  1.0000
  O   O24       1.0  0.99607  0.74381  0.53176  1.0000
  C   C216      1.0  0.00430  0.76637  0.60321  1.0000
  H   H166      1.0  0.99294  0.75443  0.66630  1.0000
  H   H167      1.0  0.99667  0.78275  0.58698  1.0000
  H   H168      1.0  0.02908  0.77884  0.61535  1.0000
