data_image0
_chemical_formula_structural       H3C9H2COH2C6H3COH3C6H3COH3C2H2C4HCOH3C2H2C4HCOH3C2H2C4HCOH3C2H2C4HCOH3C2H2C4HCOH3C2H2C4HCOH3CNCNCNC18H12CNCNCNC18H12CNCNCNC18H12CNCNCNC18H12CNCNCNC18H12CNCNCNC18H12C2H2C2HOH2C2H2C4HCOH3C2H2C4HCOH3C6H3COH3C6H3COH3C6H3COH3C6H3COH3C6H3COH3C6H3COH3
_chemical_formula_sum              "H180 C252 O18 N18"
_cell_length_a       76.3482
_cell_length_b       76.3482
_cell_length_c       14.9911
_cell_angle_alpha    90
_cell_angle_beta     90
_cell_angle_gamma    120

_space_group_name_H-M_alt    "P 1"
_space_group_IT_number       1

loop_
  _space_group_symop_operation_xyz
  'x, y, z'

loop_
  _atom_site_type_symbol
  _atom_site_label
  _atom_site_symmetry_multiplicity
  _atom_site_fract_x
  _atom_site_fract_y
  _atom_site_fract_z
  _atom_site_occupancy
  H   H1        1.0  0.00504  0.48377  0.18946  1.0000
  H   H2        1.0  0.00237  0.48117  0.49094  1.0000
  H   H3        1.0  0.01420  0.52818  0.24607  1.0000
  C   C1        1.0  0.01110  0.50499  0.33416  1.0000
  C   C2        1.0  0.01096  0.47876  0.43901  1.0000
  C   C3        1.0  0.02180  0.52297  0.28407  1.0000
  C   C4        1.0  0.02192  0.49780  0.38554  1.0000
  C   C5        1.0  0.94653  0.47372  0.32793  1.0000
  C   C6        1.0  0.95742  0.47097  0.25824  1.0000
  C   C7        1.0  0.97884  0.48108  0.25716  1.0000
  C   C8        1.0  0.98964  0.49436  0.32893  1.0000
  C   C9        1.0  0.04302  0.53388  0.28431  1.0000
  H   H4        1.0  0.05025  0.54660  0.24562  1.0000
  H   H5        1.0  0.94959  0.46148  0.20654  1.0000
  C   C10       1.0  0.98872  0.47696  0.18060  1.0000
  O   O1        1.0  0.98496  0.48480  0.10064  1.0000
  H   H6        1.0  0.98247  0.46062  0.17446  1.0000
  H   H7        1.0  0.99123  0.48153  0.05082  1.0000
  C   C11       1.0  0.52702  0.47297  0.32799  1.0000
  C   C12       1.0  0.52977  0.48660  0.25831  1.0000
  C   C13       1.0  0.51965  0.49790  0.25722  1.0000
  C   C14       1.0  0.50638  0.49543  0.32899  1.0000
  C   C15       1.0  0.47776  0.49896  0.28412  1.0000
  C   C16       1.0  0.46686  0.50929  0.28428  1.0000
  H   H8        1.0  0.47256  0.48616  0.24609  1.0000
  H   H9        1.0  0.45415  0.50380  0.24558  1.0000
  H   H10       1.0  0.53926  0.48825  0.20659  1.0000
  C   C17       1.0  0.52378  0.51191  0.18066  1.0000
  O   O2        1.0  0.51594  0.50031  0.10069  1.0000
  H   H11       1.0  0.51697  0.52142  0.18951  1.0000
  H   H12       1.0  0.54012  0.52200  0.17452  1.0000
  H   H13       1.0  0.51921  0.50985  0.05088  1.0000
  C   C18       1.0  0.52777  0.05421  0.32795  1.0000
  C   C19       1.0  0.51413  0.04332  0.25827  1.0000
  C   C20       1.0  0.50283  0.02191  0.25718  1.0000
  C   C21       1.0  0.50531  0.01110  0.32894  1.0000
  C   C22       1.0  0.50176  0.97895  0.28407  1.0000
  C   C23       1.0  0.49144  0.95772  0.28430  1.0000
  H   H14       1.0  0.51456  0.98654  0.24606  1.0000
  H   H15       1.0  0.49693  0.95049  0.24560  1.0000
  H   H16       1.0  0.51248  0.05116  0.20657  1.0000
  C   C24       1.0  0.48882  0.01202  0.18061  1.0000
  O   O3        1.0  0.50043  0.01579  0.10065  1.0000
  H   H17       1.0  0.47931  0.99570  0.18946  1.0000
  H   H18       1.0  0.47873  0.01828  0.17448  1.0000
  H   H19       1.0  0.49089  0.00952  0.05083  1.0000
  C   C25       1.0  0.23825  0.51805  0.27522  1.0000
  C   C26       1.0  0.22182  0.52150  0.28097  1.0000
  H   H20       1.0  0.23993  0.51170  0.21802  1.0000
  H   H21       1.0  0.21220  0.51776  0.22773  1.0000
  C   C27       1.0  0.27256  0.52740  0.31930  1.0000
  C   C28       1.0  0.31337  0.53612  0.31452  1.0000
  C   C29       1.0  0.30711  0.54772  0.26446  1.0000
  C   C30       1.0  0.28701  0.54397  0.26694  1.0000
  H   H22       1.0  0.31782  0.55986  0.22939  1.0000
  C   C31       1.0  0.28149  0.55771  0.21834  1.0000
  O   O4        1.0  0.29743  0.57464  0.17218  1.0000
  H   H23       1.0  0.27448  0.56348  0.26455  1.0000
  H   H24       1.0  0.27029  0.54875  0.16773  1.0000
  H   H25       1.0  0.30638  0.58451  0.21695  1.0000
  C   C32       1.0  0.48268  0.72035  0.27546  1.0000
  C   C33       1.0  0.47925  0.70048  0.28125  1.0000
  H   H26       1.0  0.48902  0.72838  0.21826  1.0000
  H   H27       1.0  0.48295  0.69461  0.22783  1.0000
  C   C34       1.0  0.47335  0.74533  0.31948  1.0000
  C   C35       1.0  0.46466  0.77744  0.31438  1.0000
  C   C36       1.0  0.45306  0.75956  0.26440  1.0000
  C   C37       1.0  0.45678  0.74319  0.26709  1.0000
  H   H28       1.0  0.44089  0.75810  0.22946  1.0000
  C   C38       1.0  0.44303  0.72393  0.21860  1.0000
  O   O5        1.0  0.42610  0.72292  0.17239  1.0000
  H   H29       1.0  0.43725  0.71115  0.26489  1.0000
  H   H30       1.0  0.45198  0.72166  0.16802  1.0000
  H   H31       1.0  0.41624  0.72203  0.21714  1.0000
  C   C39       1.0  0.28040  0.76248  0.27520  1.0000
  C   C40       1.0  0.30028  0.77891  0.28097  1.0000
  H   H32       1.0  0.27237  0.76079  0.21801  1.0000
  H   H33       1.0  0.30616  0.78852  0.22772  1.0000
  C   C41       1.0  0.25543  0.72816  0.31931  1.0000
  C   C42       1.0  0.22333  0.68736  0.31453  1.0000
  C   C43       1.0  0.24119  0.69361  0.26450  1.0000
  C   C44       1.0  0.25755  0.71372  0.26697  1.0000
  H   H34       1.0  0.24262  0.68290  0.22944  1.0000
  C   C45       1.0  0.27680  0.71922  0.21837  1.0000
  O   O6        1.0  0.27780  0.70328  0.17222  1.0000
  H   H35       1.0  0.28959  0.72623  0.26458  1.0000
  H   H36       1.0  0.27905  0.73042  0.16775  1.0000
  H   H37       1.0  0.27870  0.69433  0.21699  1.0000
  C   C46       1.0  0.76221  0.48265  0.27654  1.0000
  C   C47       1.0  0.77872  0.47933  0.28300  1.0000
  H   H38       1.0  0.76055  0.48895  0.21913  1.0000
  H   H39       1.0  0.78835  0.48304  0.22982  1.0000
  C   C48       1.0  0.72781  0.47318  0.31956  1.0000
  C   C49       1.0  0.68695  0.46427  0.31317  1.0000
  C   C50       1.0  0.69338  0.45275  0.26357  1.0000
  C   C51       1.0  0.71351  0.45658  0.26690  1.0000
  H   H40       1.0  0.68276  0.44056  0.22845  1.0000
  C   C52       1.0  0.71918  0.44289  0.21884  1.0000
  O   O7        1.0  0.70336  0.42592  0.17239  1.0000
  H   H41       1.0  0.72616  0.43717  0.26547  1.0000
  H   H42       1.0  0.73044  0.45188  0.16849  1.0000
  H   H43       1.0  0.69436  0.41604  0.21700  1.0000
  C   C53       1.0  0.51807  0.27972  0.27630  1.0000
  C   C54       1.0  0.52142  0.29955  0.28272  1.0000
  H   H44       1.0  0.51177  0.27176  0.21889  1.0000
  H   H45       1.0  0.51766  0.30547  0.22972  1.0000
  C   C55       1.0  0.52757  0.25480  0.31938  1.0000
  C   C56       1.0  0.53650  0.22286  0.31331  1.0000
  C   C57       1.0  0.54802  0.24079  0.26362  1.0000
  C   C58       1.0  0.54417  0.25708  0.26676  1.0000
  H   H46       1.0  0.56018  0.24234  0.22838  1.0000
  C   C59       1.0  0.55784  0.27642  0.21859  1.0000
  O   O8        1.0  0.57481  0.27758  0.17218  1.0000
  H   H47       1.0  0.56355  0.28914  0.26513  1.0000
  H   H48       1.0  0.54884  0.27867  0.16819  1.0000
  H   H49       1.0  0.58470  0.27848  0.21681  1.0000
  C   C60       1.0  0.72103  0.23851  0.27656  1.0000
  C   C61       1.0  0.70121  0.22201  0.28300  1.0000
  H   H50       1.0  0.72900  0.24017  0.21915  1.0000
  H   H51       1.0  0.69530  0.21238  0.22983  1.0000
  C   C62       1.0  0.74596  0.27292  0.31956  1.0000
  C   C63       1.0  0.77792  0.31378  0.31318  1.0000
  C   C64       1.0  0.75997  0.30735  0.26354  1.0000
  C   C65       1.0  0.74367  0.28722  0.26689  1.0000
  H   H52       1.0  0.75841  0.31797  0.22841  1.0000
  C   C66       1.0  0.72432  0.28155  0.21881  1.0000
  O   O9        1.0  0.72317  0.29737  0.17234  1.0000
  H   H53       1.0  0.71161  0.27456  0.26543  1.0000
  H   H54       1.0  0.72205  0.27028  0.16847  1.0000
  H   H55       1.0  0.72228  0.30636  0.21694  1.0000
  C   C67       1.0  0.17217  0.60186  0.33875  1.0000
  N   N1        1.0  0.15162  0.59131  0.33556  1.0000
  C   C68       1.0  0.14088  0.57066  0.33368  1.0000
  N   N2        1.0  0.15150  0.56063  0.33447  1.0000
  C   C69       1.0  0.17205  0.57041  0.33687  1.0000
  N   N3        1.0  0.18166  0.59088  0.33905  1.0000
  C   C70       1.0  0.11929  0.55989  0.33258  1.0000
  C   C71       1.0  0.10812  0.57005  0.34188  1.0000
  C   C72       1.0  0.08684  0.55937  0.34236  1.0000
  C   C73       1.0  0.07581  0.53808  0.33361  1.0000
  C   C74       1.0  0.08690  0.52789  0.32378  1.0000
  C   C75       1.0  0.10817  0.53857  0.32332  1.0000
  C   C76       1.0  0.18401  0.62338  0.33986  1.0000
  C   C77       1.0  0.17615  0.63592  0.31345  1.0000
  C   C78       1.0  0.18877  0.65711  0.30715  1.0000
  C   C79       1.0  0.20964  0.66633  0.32683  1.0000
  C   C80       1.0  0.21725  0.65395  0.35784  1.0000
  C   C81       1.0  0.20471  0.63294  0.36409  1.0000
  C   C82       1.0  0.18363  0.56041  0.33875  1.0000
  C   C83       1.0  0.20502  0.57186  0.34443  1.0000
  C   C84       1.0  0.21677  0.56249  0.34889  1.0000
  C   C85       1.0  0.20766  0.54121  0.34787  1.0000
  C   C86       1.0  0.18640  0.52958  0.33937  1.0000
  C   C87       1.0  0.17457  0.53905  0.33574  1.0000
  H   H56       1.0  0.18282  0.66565  0.28406  1.0000
  H   H57       1.0  0.16134  0.62968  0.29463  1.0000
  H   H58       1.0  0.23219  0.66009  0.37465  1.0000
  H   H59       1.0  0.21115  0.62470  0.38526  1.0000
  H   H60       1.0  0.21250  0.58733  0.34612  1.0000
  H   H61       1.0  0.23217  0.57148  0.35265  1.0000
  H   H62       1.0  0.15920  0.53012  0.33128  1.0000
  H   H63       1.0  0.17936  0.51412  0.33801  1.0000
  H   H64       1.0  0.11543  0.53045  0.31576  1.0000
  H   H65       1.0  0.07957  0.51252  0.31560  1.0000
  H   H66       1.0  0.07945  0.56734  0.35099  1.0000
  H   H67       1.0  0.11535  0.58542  0.34953  1.0000
  C   C88       1.0  0.39887  0.57045  0.33864  1.0000
  N   N4        1.0  0.40943  0.56046  0.33544  1.0000
  C   C89       1.0  0.43007  0.57036  0.33358  1.0000
  N   N5        1.0  0.44010  0.59102  0.33440  1.0000
  C   C90       1.0  0.43033  0.60179  0.33683  1.0000
  N   N6        1.0  0.40986  0.59092  0.33897  1.0000
  C   C91       1.0  0.44085  0.55954  0.33248  1.0000
  C   C92       1.0  0.43068  0.53822  0.34175  1.0000
  C   C93       1.0  0.44136  0.52761  0.34226  1.0000
  C   C94       1.0  0.46266  0.53788  0.33354  1.0000
  C   C95       1.0  0.47285  0.55916  0.32370  1.0000
  C   C96       1.0  0.46217  0.56976  0.32322  1.0000
  C   C97       1.0  0.37735  0.56078  0.33974  1.0000
  C   C98       1.0  0.36481  0.54038  0.31328  1.0000
  C   C99       1.0  0.34362  0.53180  0.30704  1.0000
  C   C100      1.0  0.33440  0.54345  0.32678  1.0000
  C   C101      1.0  0.34678  0.56345  0.35772  1.0000
  C   C102      1.0  0.36780  0.57192  0.36398  1.0000
  C   C103      1.0  0.44032  0.62336  0.33872  1.0000
  C   C104      1.0  0.42887  0.63330  0.34452  1.0000
  C   C105      1.0  0.43823  0.65441  0.34904  1.0000
  C   C106      1.0  0.45952  0.66659  0.34791  1.0000
  C   C107      1.0  0.47115  0.65697  0.33926  1.0000
  C   C108      1.0  0.46168  0.63567  0.33563  1.0000
  H   H68       1.0  0.33507  0.51730  0.28412  1.0000
  H   H69       1.0  0.37105  0.53180  0.29465  1.0000
  H   H70       1.0  0.34064  0.57225  0.37453  1.0000
  H   H71       1.0  0.37604  0.58660  0.38509  1.0000
  H   H72       1.0  0.41340  0.62532  0.34631  1.0000
  H   H73       1.0  0.42925  0.66083  0.35292  1.0000
  H   H74       1.0  0.47061  0.62923  0.33108  1.0000
  H   H75       1.0  0.48661  0.66539  0.33791  1.0000
  H   H76       1.0  0.47029  0.58513  0.31567  1.0000
  H   H77       1.0  0.48821  0.56719  0.31552  1.0000
  H   H78       1.0  0.43340  0.51226  0.35091  1.0000
  H   H79       1.0  0.41532  0.53008  0.34943  1.0000
  C   C109      1.0  0.43029  0.82857  0.33860  1.0000
  N   N7        1.0  0.44028  0.84912  0.33544  1.0000
  C   C110      1.0  0.43038  0.85986  0.33361  1.0000
  N   N8        1.0  0.40972  0.84923  0.33444  1.0000
  C   C111      1.0  0.39895  0.82869  0.33682  1.0000
  N   N9        1.0  0.40982  0.81908  0.33893  1.0000
  C   C112      1.0  0.44119  0.88145  0.33254  1.0000
  C   C113      1.0  0.46252  0.89262  0.34182  1.0000
  C   C114      1.0  0.47313  0.91390  0.34232  1.0000
  C   C115      1.0  0.46285  0.92493  0.33359  1.0000
  C   C116      1.0  0.44157  0.91384  0.32377  1.0000
  C   C117      1.0  0.43098  0.89256  0.32330  1.0000
  C   C118      1.0  0.43997  0.81673  0.33966  1.0000
  C   C119      1.0  0.46037  0.82460  0.31327  1.0000
  C   C120      1.0  0.46895  0.81199  0.30696  1.0000
  C   C121      1.0  0.45730  0.79112  0.32660  1.0000
  C   C122      1.0  0.43731  0.78350  0.35760  1.0000
  C   C123      1.0  0.42883  0.79603  0.36385  1.0000
  C   C124      1.0  0.37738  0.81711  0.33873  1.0000
  C   C125      1.0  0.36745  0.79572  0.34446  1.0000
  C   C126      1.0  0.34633  0.78397  0.34895  1.0000
  C   C127      1.0  0.33415  0.79308  0.34788  1.0000
  C   C128      1.0  0.34377  0.81433  0.33933  1.0000
  C   C129      1.0  0.36508  0.82616  0.33570  1.0000
  H   H80       1.0  0.48344  0.81794  0.28391  1.0000
  H   H81       1.0  0.46894  0.83942  0.29449  1.0000
  H   H82       1.0  0.42852  0.76856  0.37441  1.0000
  H   H83       1.0  0.41415  0.78958  0.38503  1.0000
  H   H84       1.0  0.37543  0.78824  0.34618  1.0000
  H   H85       1.0  0.33991  0.76857  0.35273  1.0000
  H   H86       1.0  0.37151  0.84154  0.33118  1.0000
  H   H87       1.0  0.33535  0.82136  0.33794  1.0000
  H   H88       1.0  0.41561  0.88531  0.31575  1.0000
  H   H89       1.0  0.43354  0.92117  0.31561  1.0000
  H   H90       1.0  0.48848  0.92129  0.35095  1.0000
  H   H91       1.0  0.47066  0.88539  0.34946  1.0000
  C   C130      1.0  0.82874  0.39937  0.33721  1.0000
  N   N10       1.0  0.84927  0.40999  0.33318  1.0000
  C   C131      1.0  0.85997  0.43064  0.33252  1.0000
  N   N11       1.0  0.84931  0.44063  0.33524  1.0000
  C   C132      1.0  0.82877  0.43079  0.33836  1.0000
  N   N12       1.0  0.81921  0.41031  0.33935  1.0000
  C   C133      1.0  0.88154  0.44143  0.33037  1.0000
  C   C134      1.0  0.89258  0.43133  0.31480  1.0000
  C   C135      1.0  0.91386  0.44193  0.31332  1.0000
  C   C136      1.0  0.92496  0.46304  0.32833  1.0000
  C   C137      1.0  0.91404  0.47319  0.34428  1.0000
  C   C138      1.0  0.89275  0.46260  0.34472  1.0000
  C   C139      1.0  0.81695  0.37784  0.33769  1.0000
  C   C140      1.0  0.82490  0.36538  0.31114  1.0000
  C   C141      1.0  0.81238  0.34417  0.30500  1.0000
  C   C142      1.0  0.79151  0.33485  0.32490  1.0000
  C   C143      1.0  0.78380  0.34715  0.35580  1.0000
  C   C144      1.0  0.79625  0.36818  0.36197  1.0000
  C   C145      1.0  0.81713  0.44071  0.34131  1.0000
  C   C146      1.0  0.79576  0.42918  0.34807  1.0000
  C   C147      1.0  0.78393  0.43847  0.35261  1.0000
  C   C148      1.0  0.79294  0.45974  0.35061  1.0000
  C   C149      1.0  0.81417  0.47144  0.34130  1.0000
  C   C150      1.0  0.82609  0.46205  0.33764  1.0000
  H   H92       1.0  0.81841  0.33568  0.28219  1.0000
  H   H93       1.0  0.83973  0.37169  0.29259  1.0000
  H   H94       1.0  0.76887  0.34093  0.37281  1.0000
  H   H95       1.0  0.78973  0.37634  0.38322  1.0000
  H   H96       1.0  0.78834  0.41372  0.35029  1.0000
  H   H97       1.0  0.76854  0.42942  0.35688  1.0000
  H   H98       1.0  0.84144  0.47103  0.33227  1.0000
  H   H99       1.0  0.82114  0.48688  0.33922  1.0000
  H   H100      1.0  0.88557  0.47064  0.35672  1.0000
  H   H101      1.0  0.92150  0.48849  0.35448  1.0000
  H   H102      1.0  0.92119  0.43397  0.30282  1.0000
  H   H103      1.0  0.88527  0.41606  0.30395  1.0000
  C   C151      1.0  0.60136  0.42951  0.33730  1.0000
  N   N13       1.0  0.59074  0.43943  0.33326  1.0000
  C   C152      1.0  0.57009  0.42947  0.33259  1.0000
  N   N14       1.0  0.56010  0.40883  0.33530  1.0000
  C   C153      1.0  0.56994  0.39812  0.33840  1.0000
  N   N15       1.0  0.59041  0.40904  0.33941  1.0000
  C   C154      1.0  0.55931  0.44026  0.33043  1.0000
  C   C155      1.0  0.56941  0.46140  0.31485  1.0000
  C   C156      1.0  0.55880  0.47207  0.31338  1.0000
  C   C157      1.0  0.53770  0.46207  0.32839  1.0000
  C   C158      1.0  0.52755  0.44100  0.34434  1.0000
  C   C159      1.0  0.53813  0.43030  0.34478  1.0000
  C   C160      1.0  0.62289  0.43925  0.33779  1.0000
  C   C161      1.0  0.63535  0.45966  0.31130  1.0000
  C   C162      1.0  0.65656  0.46834  0.30511  1.0000
  C   C163      1.0  0.66588  0.45679  0.32492  1.0000
  C   C164      1.0  0.65358  0.43678  0.35586  1.0000
  C   C165      1.0  0.63255  0.42820  0.36202  1.0000
  C   C166      1.0  0.56001  0.37656  0.34133  1.0000
  C   C167      1.0  0.57154  0.36671  0.34795  1.0000
  C   C168      1.0  0.56225  0.34560  0.35245  1.0000
  C   C169      1.0  0.54097  0.33334  0.35057  1.0000
  C   C170      1.0  0.52928  0.34288  0.34142  1.0000
  C   C171      1.0  0.53867  0.36418  0.33776  1.0000
  H   H104      1.0  0.66504  0.48285  0.28217  1.0000
  H   H105      1.0  0.62904  0.46818  0.29261  1.0000
  H   H106      1.0  0.65979  0.42806  0.37285  1.0000
  H   H107      1.0  0.62439  0.41353  0.38331  1.0000
  H   H108      1.0  0.58700  0.37475  0.35007  1.0000
  H   H109      1.0  0.57129  0.33925  0.35658  1.0000
  H   H110      1.0  0.52970  0.37055  0.33248  1.0000
  H   H111      1.0  0.51384  0.33440  0.33934  1.0000
  H   H112      1.0  0.53009  0.41508  0.35680  1.0000
  H   H113      1.0  0.51224  0.43316  0.35456  1.0000
  H   H114      1.0  0.56677  0.48737  0.30289  1.0000
  H   H115      1.0  0.58468  0.46936  0.30401  1.0000
  C   C172      1.0  0.57124  0.17201  0.33735  1.0000
  N   N16       1.0  0.56131  0.15147  0.33330  1.0000
  C   C173      1.0  0.57127  0.14078  0.33259  1.0000
  N   N17       1.0  0.59191  0.15142  0.33528  1.0000
  C   C174      1.0  0.60262  0.17197  0.33840  1.0000
  N   N18       1.0  0.59170  0.18153  0.33945  1.0000
  C   C175      1.0  0.56047  0.11920  0.33043  1.0000
  C   C176      1.0  0.53934  0.10816  0.31486  1.0000
  C   C177      1.0  0.52867  0.08689  0.31336  1.0000
  C   C178      1.0  0.53867  0.07578  0.32836  1.0000
  C   C179      1.0  0.55974  0.08670  0.34432  1.0000
  C   C180      1.0  0.57044  0.10798  0.34476  1.0000
  C   C181      1.0  0.56150  0.18380  0.33788  1.0000
  C   C182      1.0  0.54109  0.17586  0.31134  1.0000
  C   C183      1.0  0.53241  0.18839  0.30521  1.0000
  C   C184      1.0  0.54396  0.20925  0.32511  1.0000
  C   C185      1.0  0.56397  0.21695  0.35600  1.0000
  C   C186      1.0  0.57254  0.20450  0.36215  1.0000
  C   C187      1.0  0.62418  0.18361  0.34131  1.0000
  C   C188      1.0  0.63403  0.20498  0.34799  1.0000
  C   C189      1.0  0.65514  0.21681  0.35251  1.0000
  C   C190      1.0  0.66740  0.20779  0.35059  1.0000
  C   C191      1.0  0.65786  0.18656  0.34135  1.0000
  C   C192      1.0  0.63656  0.17465  0.33769  1.0000
  H   H116      1.0  0.51789  0.18237  0.28239  1.0000
  H   H117      1.0  0.53256  0.16103  0.29278  1.0000
  H   H118      1.0  0.57270  0.23189  0.37298  1.0000
  H   H119      1.0  0.58722  0.21101  0.38339  1.0000
  H   H120      1.0  0.62599  0.21240  0.35016  1.0000
  H   H121      1.0  0.66148  0.23219  0.35674  1.0000
  H   H122      1.0  0.63019  0.15930  0.33240  1.0000
  H   H123      1.0  0.66634  0.17959  0.33932  1.0000
  H   H124      1.0  0.58566  0.11517  0.35676  1.0000
  H   H125      1.0  0.56758  0.07924  0.35450  1.0000
  H   H126      1.0  0.51337  0.07956  0.30287  1.0000
  H   H127      1.0  0.53138  0.11548  0.30403  1.0000
  C   C193      1.0  0.97885  0.49733  0.39824  1.0000
  C   C194      1.0  0.95762  0.48718  0.39766  1.0000
  H   H128      1.0  0.98637  0.50683  0.45034  1.0000
  H   H129      1.0  0.95031  0.48937  0.44997  1.0000
  C   C195      1.0  0.05420  0.52716  0.33456  1.0000
  C   C196      1.0  0.04335  0.50919  0.38505  1.0000
  H   H130      1.0  0.05132  0.50453  0.42342  1.0000
  O   O10       1.0  0.02313  0.47198  0.48351  1.0000
  H   H131      1.0  0.00016  0.46648  0.39618  1.0000
  H   H132      1.0  0.02908  0.46723  0.43792  1.0000
  C   C197      1.0  0.50341  0.48167  0.39830  1.0000
  C   C198      1.0  0.51357  0.47060  0.39775  1.0000
  H   H133      1.0  0.49391  0.47969  0.45041  1.0000
  H   H134      1.0  0.51137  0.46109  0.45003  1.0000
  C   C199      1.0  0.49575  0.50626  0.33420  1.0000
  C   C200      1.0  0.47357  0.52719  0.33452  1.0000
  C   C201      1.0  0.49154  0.53430  0.38506  1.0000
  C   C202      1.0  0.50293  0.52427  0.38555  1.0000
  H   H135      1.0  0.49621  0.54695  0.42337  1.0000
  C   C203      1.0  0.52198  0.53236  0.43902  1.0000
  O   O11       1.0  0.52875  0.55130  0.48350  1.0000
  H   H136      1.0  0.53426  0.53383  0.39619  1.0000
  H   H137      1.0  0.51957  0.52136  0.49096  1.0000
  H   H138      1.0  0.53350  0.56200  0.43789  1.0000
  C   C204      1.0  0.51906  0.02189  0.39825  1.0000
  C   C205      1.0  0.53014  0.04312  0.39769  1.0000
  H   H139      1.0  0.52104  0.01437  0.45035  1.0000
  H   H140      1.0  0.53965  0.05043  0.44999  1.0000
  C   C206      1.0  0.49447  0.98964  0.33416  1.0000
  C   C207      1.0  0.47355  0.94654  0.33455  1.0000
  C   C208      1.0  0.46643  0.95739  0.38505  1.0000
  C   C209      1.0  0.47647  0.97882  0.38554  1.0000
  H   H141      1.0  0.45379  0.94942  0.42342  1.0000
  C   C210      1.0  0.46838  0.98978  0.43902  1.0000
  O   O12       1.0  0.44944  0.97761  0.48353  1.0000
  H   H142      1.0  0.46691  0.00058  0.39620  1.0000
  H   H143      1.0  0.47938  0.99837  0.49095  1.0000
  H   H144      1.0  0.43874  0.97166  0.43793  1.0000
  C   C211      1.0  0.22031  0.53251  0.35324  1.0000
  C   C212      1.0  0.23465  0.53845  0.42286  1.0000
  C   C213      1.0  0.25151  0.53551  0.41779  1.0000
  C   C214      1.0  0.25360  0.52566  0.34100  1.0000
  C   C215      1.0  0.27840  0.51475  0.36362  1.0000
  C   C216      1.0  0.29863  0.51913  0.36165  1.0000
  H   H145      1.0  0.26840  0.50336  0.40436  1.0000
  H   H146      1.0  0.30278  0.51084  0.40089  1.0000
  H   H147      1.0  0.23378  0.54670  0.47487  1.0000
  C   C217      1.0  0.26685  0.54474  0.49048  1.0000
  O   O13       1.0  0.25790  0.53498  0.57319  1.0000
  H   H148      1.0  0.28026  0.54344  0.47887  1.0000
  H   H149      1.0  0.27189  0.56089  0.49496  1.0000
  H   H150      1.0  0.26807  0.54168  0.62045  1.0000
  C   C218      1.0  0.46822  0.68795  0.35341  1.0000
  C   C219      1.0  0.46228  0.69635  0.42302  1.0000
  C   C220      1.0  0.46521  0.71614  0.41797  1.0000
  C   C221      1.0  0.47508  0.72810  0.34127  1.0000
  C   C222      1.0  0.48598  0.76381  0.36381  1.0000
  C   C223      1.0  0.48166  0.77970  0.36149  1.0000
  H   H151      1.0  0.49741  0.76523  0.40436  1.0000
  H   H152      1.0  0.48993  0.79214  0.40073  1.0000
  H   H153      1.0  0.45401  0.68721  0.47501  1.0000
  C   C224      1.0  0.45601  0.72227  0.49073  1.0000
  O   O14       1.0  0.46578  0.72307  0.57339  1.0000
  H   H154      1.0  0.45732  0.73698  0.47913  1.0000
  H   H155      1.0  0.43986  0.71117  0.49525  1.0000
  H   H156      1.0  0.45910  0.72655  0.62069  1.0000
  C   C225      1.0  0.31279  0.78041  0.35324  1.0000
  C   C226      1.0  0.30439  0.76607  0.42286  1.0000
  C   C227      1.0  0.28460  0.74922  0.41779  1.0000
  C   C228      1.0  0.27266  0.74713  0.34100  1.0000
  C   C229      1.0  0.23695  0.72233  0.36363  1.0000
  C   C230      1.0  0.22110  0.70211  0.36166  1.0000
  H   H157      1.0  0.23557  0.73234  0.40437  1.0000
  H   H158      1.0  0.20866  0.69797  0.40092  1.0000
  H   H159      1.0  0.31352  0.76696  0.47489  1.0000
  C   C231      1.0  0.27848  0.73388  0.49049  1.0000
  O   O15       1.0  0.27768  0.74283  0.57319  1.0000
  H   H160      1.0  0.26378  0.72047  0.47888  1.0000
  H   H161      1.0  0.28960  0.72884  0.49498  1.0000
  H   H162      1.0  0.27420  0.73267  0.62045  1.0000
  C   C232      1.0  0.78019  0.46835  0.35548  1.0000
  C   C233      1.0  0.76576  0.46238  0.42474  1.0000
  C   C234      1.0  0.74885  0.46521  0.41900  1.0000
  C   C235      1.0  0.74678  0.47501  0.34198  1.0000
  C   C236      1.0  0.72180  0.48573  0.36348  1.0000
  C   C237      1.0  0.70157  0.48130  0.36055  1.0000
  H   H163      1.0  0.73173  0.49718  0.40421  1.0000
  H   H164      1.0  0.69729  0.48952  0.39956  1.0000
  H   H165      1.0  0.76663  0.45417  0.47699  1.0000
  C   C238      1.0  0.73343  0.45595  0.49141  1.0000
  O   O16       1.0  0.74227  0.46576  0.57419  1.0000
  H   H166      1.0  0.72000  0.45718  0.47932  1.0000
  H   H167      1.0  0.72846  0.43982  0.49609  1.0000
  H   H168      1.0  0.73206  0.45905  0.62127  1.0000
  C   C239      1.0  0.53236  0.31198  0.35531  1.0000
  C   C240      1.0  0.53833  0.30352  0.42458  1.0000
  C   C241      1.0  0.53551  0.28378  0.41881  1.0000
  C   C242      1.0  0.52572  0.27194  0.34171  1.0000
  C   C243      1.0  0.51500  0.23624  0.36329  1.0000
  C   C244      1.0  0.51948  0.22046  0.36069  1.0000
  H   H169      1.0  0.50359  0.23474  0.40421  1.0000
  H   H170      1.0  0.51125  0.20797  0.39971  1.0000
  H   H171      1.0  0.54653  0.31259  0.47685  1.0000
  C   C245      1.0  0.54479  0.27763  0.49117  1.0000
  O   O17       1.0  0.53499  0.27666  0.57399  1.0000
  H   H172      1.0  0.54357  0.26298  0.47906  1.0000
  H   H173      1.0  0.56092  0.28880  0.49580  1.0000
  H   H174      1.0  0.54172  0.27317  0.62103  1.0000
  C   C246      1.0  0.68876  0.22054  0.35548  1.0000
  C   C247      1.0  0.69722  0.23497  0.42472  1.0000
  C   C248      1.0  0.71696  0.25189  0.41899  1.0000
  C   C249      1.0  0.72882  0.25395  0.34199  1.0000
  C   C250      1.0  0.76452  0.27892  0.36351  1.0000
  C   C251      1.0  0.78033  0.29916  0.36057  1.0000
  H   H175      1.0  0.76605  0.26900  0.40426  1.0000
  H   H176      1.0  0.79283  0.30344  0.39959  1.0000
  H   H177      1.0  0.68814  0.23411  0.47696  1.0000
  C   C252      1.0  0.72312  0.26730  0.49140  1.0000
  O   O18       1.0  0.72408  0.25846  0.57418  1.0000
  H   H178      1.0  0.73777  0.28073  0.47931  1.0000
  H   H179      1.0  0.71196  0.27227  0.49606  1.0000
  H   H180      1.0  0.72757  0.26867  0.62126  1.0000
