data_image0
_chemical_formula_structural       C3NO2CNCHCH3C7NHC4HC3NHNO2C4HC3NHNO2CNC2H2NO2CNC2H2NO2CNC2H2NO2CNC2H2NO2CNC2H2NO2CNC2H2NO2CHC6H3C6H3C6H3C6H3C6H3C2HNO2CNC2H2NO2CNC2H2NO2C4HC3NHNO2C4HC3NHNO2C4HC3NHNO2C4HC3NHNO2C4HC3NHNO2C4HC3NHNO2
_chemical_formula_sum              "C126 N36 O36 H54"
_cell_length_a       46.5069
_cell_length_b       46.5069
_cell_length_c       14.8855
_cell_angle_alpha    90
_cell_angle_beta     90
_cell_angle_gamma    120

_space_group_name_H-M_alt    "P 1"
_space_group_IT_number       1

loop_
  _space_group_symop_operation_xyz
  'x, y, z'

loop_
  _atom_site_type_symbol
  _atom_site_label
  _atom_site_symmetry_multiplicity
  _atom_site_fract_x
  _atom_site_fract_y
  _atom_site_fract_z
  _atom_site_occupancy
  C   C1        1.0  0.02404  0.51557  0.34074  1.0000
  C   C2        1.0  0.04191  0.50855  0.27453  1.0000
  C   C3        1.0  0.07718  0.52571  0.27770  1.0000
  N   N1        1.0  0.02513  0.48550  0.20461  1.0000
  O   O1        1.0  0.03103  0.46191  0.20583  1.0000
  O   O2        1.0  0.03266  0.49911  0.12865  1.0000
  C   C4        1.0  0.07649  0.55654  0.40611  1.0000
  N   N2        1.0  0.04284  0.53925  0.40251  1.0000
  C   C5        1.0  0.09526  0.55015  0.34322  1.0000
  H   H1        1.0  0.08986  0.52077  0.22954  1.0000
  C   C6        1.0  0.13076  0.56762  0.34524  1.0000
  H   H2        1.0  0.13685  0.61602  0.33876  1.0000
  H   H3        1.0  0.13568  0.52462  0.35106  1.0000
  H   H4        1.0  0.08779  0.57365  0.45615  1.0000
  C   C7        1.0  0.18348  0.56705  0.35120  1.0000
  C   C8        1.0  0.18419  0.62028  0.34181  1.0000
  C   C9        1.0  0.14910  0.60288  0.34307  1.0000
  C   C10       1.0  0.14842  0.55003  0.34814  1.0000
  C   C11       1.0  0.98821  0.49945  0.34708  1.0000
  C   C12       1.0  0.91666  0.46281  0.34924  1.0000
  C   C13       1.0  0.93583  0.45327  0.29682  1.0000
  N   N3        1.0  0.96946  0.47138  0.29820  1.0000
  H   H5        1.0  0.92488  0.43308  0.25532  1.0000
  C   C14       1.0  0.45946  0.54704  0.34308  1.0000
  C   C15       1.0  0.49407  0.51043  0.34063  1.0000
  C   C16       1.0  0.50120  0.53543  0.27468  1.0000
  C   C17       1.0  0.48402  0.55352  0.27784  1.0000
  H   H6        1.0  0.48904  0.57123  0.22989  1.0000
  C   C18       1.0  0.51019  0.49072  0.34698  1.0000
  C   C19       1.0  0.54684  0.45582  0.34913  1.0000
  C   C20       1.0  0.55640  0.48454  0.29678  1.0000
  N   N4        1.0  0.53828  0.50006  0.29815  1.0000
  H   H7        1.0  0.57659  0.49380  0.25530  1.0000
  N   N5        1.0  0.52439  0.54186  0.20507  1.0000
  O   O3        1.0  0.54797  0.57134  0.20681  1.0000
  O   O4        1.0  0.51094  0.53592  0.12890  1.0000
  C   C21       1.0  0.46257  0.91431  0.34316  1.0000
  C   C22       1.0  0.49923  0.98553  0.34063  1.0000
  C   C23       1.0  0.47436  0.96766  0.27435  1.0000
  C   C24       1.0  0.45623  0.93239  0.27758  1.0000
  H   H8        1.0  0.43864  0.91971  0.22937  1.0000
  C   C25       1.0  0.51894  0.02135  0.34696  1.0000
  C   C26       1.0  0.55383  0.09290  0.34912  1.0000
  C   C27       1.0  0.52511  0.07373  0.29676  1.0000
  N   N6        1.0  0.50960  0.04009  0.29810  1.0000
  H   H9        1.0  0.51588  0.08467  0.25519  1.0000
  N   N7        1.0  0.46813  0.98443  0.20435  1.0000
  O   O5        1.0  0.43866  0.97856  0.20544  1.0000
  O   O6        1.0  0.47424  0.97689  0.12844  1.0000
  C   C28       1.0  0.21125  0.54002  0.27926  1.0000
  N   N8        1.0  0.23847  0.53645  0.27967  1.0000
  C   C29       1.0  0.30795  0.55233  0.25783  1.0000
  C   C30       1.0  0.34040  0.55674  0.25722  1.0000
  H   H10       1.0  0.35504  0.56716  0.20171  1.0000
  H   H11       1.0  0.19978  0.53837  0.21929  1.0000
  N   N9        1.0  0.29619  0.56170  0.18183  1.0000
  O   O7        1.0  0.29454  0.54497  0.11372  1.0000
  O   O8        1.0  0.31409  0.59203  0.16373  1.0000
  C   C31       1.0  0.46955  0.67315  0.27893  1.0000
  N   N10       1.0  0.47316  0.70395  0.27936  1.0000
  C   C32       1.0  0.45720  0.75750  0.25764  1.0000
  C   C33       1.0  0.45282  0.78556  0.25699  1.0000
  H   H12       1.0  0.44232  0.78972  0.20158  1.0000
  H   H13       1.0  0.47132  0.66334  0.21907  1.0000
  N   N11       1.0  0.44778  0.73634  0.18169  1.0000
  O   O9        1.0  0.46447  0.75139  0.11351  1.0000
  O   O10       1.0  0.41744  0.72391  0.16372  1.0000
  C   C34       1.0  0.33651  0.79829  0.27928  1.0000
  N   N12       1.0  0.30571  0.77108  0.27972  1.0000
  C   C35       1.0  0.25211  0.70162  0.25805  1.0000
  C   C36       1.0  0.22404  0.66920  0.25740  1.0000
  H   H14       1.0  0.21990  0.65451  0.20205  1.0000
  H   H15       1.0  0.34637  0.80971  0.21928  1.0000
  N   N13       1.0  0.27331  0.71332  0.18216  1.0000
  O   O11       1.0  0.25830  0.71496  0.11387  1.0000
  O   O12       1.0  0.28572  0.69538  0.16437  1.0000
  C   C37       1.0  0.79873  0.46971  0.28243  1.0000
  N   N14       1.0  0.77107  0.47252  0.28202  1.0000
  C   C38       1.0  0.70086  0.45415  0.25827  1.0000
  C   C39       1.0  0.66812  0.44895  0.25672  1.0000
  H   H16       1.0  0.65359  0.43788  0.20145  1.0000
  H   H17       1.0  0.81074  0.47208  0.22294  1.0000
  N   N15       1.0  0.71316  0.44483  0.18333  1.0000
  O   O13       1.0  0.71451  0.46103  0.11434  1.0000
  O   O14       1.0  0.69585  0.41435  0.16625  1.0000
  C   C40       1.0  0.53990  0.33091  0.28222  1.0000
  N   N16       1.0  0.53711  0.30045  0.28192  1.0000
  C   C41       1.0  0.55541  0.24856  0.25826  1.0000
  C   C42       1.0  0.56063  0.22103  0.25686  1.0000
  H   H18       1.0  0.57151  0.21743  0.20137  1.0000
  H   H19       1.0  0.53747  0.34049  0.22271  1.0000
  N   N17       1.0  0.56460  0.27007  0.18310  1.0000
  O   O15       1.0  0.54828  0.25511  0.11435  1.0000
  O   O16       1.0  0.59505  0.28322  0.16566  1.0000
  C   C43       1.0  0.67867  0.21094  0.28221  1.0000
  N   N18       1.0  0.70915  0.23859  0.28190  1.0000
  C   C44       1.0  0.76097  0.30881  0.25837  1.0000
  C   C45       1.0  0.78851  0.34155  0.25690  1.0000
  H   H20       1.0  0.79203  0.35606  0.20152  1.0000
  H   H21       1.0  0.66908  0.19882  0.22282  1.0000
  N   N19       1.0  0.73940  0.29651  0.18332  1.0000
  O   O17       1.0  0.75431  0.29516  0.11444  1.0000
  O   O18       1.0  0.72624  0.31381  0.16609  1.0000
  C   C46       1.0  0.20088  0.60202  0.34707  1.0000
  H   H22       1.0  0.22639  0.61452  0.34748  1.0000
  C   C47       1.0  0.44256  0.61837  0.35101  1.0000
  C   C48       1.0  0.40759  0.60080  0.34687  1.0000
  C   C49       1.0  0.38933  0.56585  0.34168  1.0000
  C   C50       1.0  0.40672  0.54815  0.34305  1.0000
  C   C51       1.0  0.44198  0.56506  0.34513  1.0000
  C   C52       1.0  0.45957  0.60032  0.34799  1.0000
  H   H23       1.0  0.39358  0.52277  0.33862  1.0000
  H   H24       1.0  0.48499  0.61300  0.35090  1.0000
  H   H25       1.0  0.39509  0.61381  0.34720  1.0000
  C   C53       1.0  0.39122  0.82610  0.35121  1.0000
  C   C54       1.0  0.40878  0.80870  0.34701  1.0000
  C   C55       1.0  0.44373  0.82538  0.34169  1.0000
  C   C56       1.0  0.46145  0.86047  0.34302  1.0000
  C   C57       1.0  0.44454  0.87882  0.34522  1.0000
  C   C58       1.0  0.40928  0.86117  0.34820  1.0000
  H   H26       1.0  0.48682  0.87271  0.33848  1.0000
  H   H27       1.0  0.39662  0.87392  0.35119  1.0000
  H   H28       1.0  0.39576  0.78319  0.34738  1.0000
  C   C59       1.0  0.82704  0.44327  0.35407  1.0000
  C   C60       1.0  0.81040  0.40840  0.34725  1.0000
  C   C61       1.0  0.82788  0.39097  0.34079  1.0000
  C   C62       1.0  0.86296  0.40913  0.34304  1.0000
  C   C63       1.0  0.88085  0.44443  0.34856  1.0000
  C   C64       1.0  0.86212  0.46099  0.35314  1.0000
  H   H29       1.0  0.87548  0.39625  0.34069  1.0000
  H   H30       1.0  0.87400  0.48638  0.35557  1.0000
  H   H31       1.0  0.78490  0.39537  0.34685  1.0000
  C   C65       1.0  0.56639  0.38574  0.35383  1.0000
  C   C66       1.0  0.60126  0.40398  0.34695  1.0000
  C   C67       1.0  0.61869  0.43889  0.34059  1.0000
  C   C68       1.0  0.60052  0.45580  0.34295  1.0000
  C   C69       1.0  0.56522  0.43839  0.34844  1.0000
  C   C70       1.0  0.54866  0.40310  0.35295  1.0000
  H   H32       1.0  0.61340  0.48120  0.34066  1.0000
  H   H33       1.0  0.52328  0.38960  0.35536  1.0000
  H   H34       1.0  0.61429  0.39151  0.34648  1.0000
  C   C71       1.0  0.62388  0.18254  0.35390  1.0000
  C   C72       1.0  0.60564  0.19915  0.34705  1.0000
  C   C73       1.0  0.57073  0.18166  0.34066  1.0000
  C   C74       1.0  0.55382  0.14659  0.34294  1.0000
  C   C75       1.0  0.57125  0.12871  0.34844  1.0000
  C   C76       1.0  0.60655  0.14746  0.35299  1.0000
  H   H35       1.0  0.52843  0.13405  0.34065  1.0000
  H   H36       1.0  0.62005  0.13558  0.35540  1.0000
  H   H37       1.0  0.61810  0.22466  0.34662  1.0000
  C   C77       1.0  0.97025  0.51026  0.40191  1.0000
  C   C78       1.0  0.93497  0.49173  0.40195  1.0000
  H   H38       1.0  0.92252  0.49955  0.44281  1.0000
  N   N20       1.0  0.98696  0.53936  0.45483  1.0000
  O   O19       1.0  0.98084  0.53322  0.53707  1.0000
  O   O20       1.0  0.97959  0.56088  0.43185  1.0000
  C   C79       1.0  0.45295  0.52176  0.40568  1.0000
  N   N21       1.0  0.47027  0.50543  0.40213  1.0000
  C   C80       1.0  0.49937  0.46193  0.40175  1.0000
  C   C81       1.0  0.51790  0.44518  0.40179  1.0000
  H   H39       1.0  0.51008  0.42490  0.44260  1.0000
  H   H40       1.0  0.43578  0.51588  0.45558  1.0000
  N   N22       1.0  0.47025  0.44952  0.45462  1.0000
  O   O21       1.0  0.47637  0.44951  0.53686  1.0000
  O   O22       1.0  0.44874  0.42063  0.43155  1.0000
  C   C82       1.0  0.48772  0.93308  0.40608  1.0000
  N   N23       1.0  0.50408  0.96673  0.40248  1.0000
  C   C83       1.0  0.54771  0.03932  0.40179  1.0000
  C   C84       1.0  0.56446  0.07460  0.40181  1.0000
  H   H41       1.0  0.58473  0.08705  0.44266  1.0000
  H   H42       1.0  0.49349  0.92178  0.45621  1.0000
  N   N24       1.0  0.56011  0.02261  0.45468  1.0000
  O   O23       1.0  0.56010  0.02873  0.53692  1.0000
  O   O24       1.0  0.58900  0.02998  0.43167  1.0000
  C   C85       1.0  0.20253  0.55095  0.35744  1.0000
  C   C86       1.0  0.25840  0.54141  0.35205  1.0000
  C   C87       1.0  0.24957  0.55072  0.43426  1.0000
  C   C88       1.0  0.22176  0.55551  0.43516  1.0000
  H   H43       1.0  0.21712  0.56500  0.49193  1.0000
  C   C89       1.0  0.28904  0.54146  0.33866  1.0000
  C   C90       1.0  0.35424  0.55052  0.33408  1.0000
  C   C91       1.0  0.33396  0.53832  0.41085  1.0000
  N   N25       1.0  0.30324  0.53493  0.41012  1.0000
  H   H44       1.0  0.34313  0.53517  0.47020  1.0000
  N   N26       1.0  0.26979  0.55826  0.51172  1.0000
  O   O25       1.0  0.25379  0.54015  0.57696  1.0000
  O   O26       1.0  0.28223  0.58817  0.53461  1.0000
  C   C92       1.0  0.45867  0.65353  0.35714  1.0000
  C   C93       1.0  0.46816  0.71889  0.35176  1.0000
  C   C94       1.0  0.45886  0.70076  0.43398  1.0000
  C   C95       1.0  0.45411  0.66818  0.43493  1.0000
  H   H45       1.0  0.44459  0.65402  0.49165  1.0000
  C   C96       1.0  0.46812  0.74948  0.33842  1.0000
  C   C97       1.0  0.45904  0.80561  0.33385  1.0000
  C   C98       1.0  0.47129  0.79756  0.41059  1.0000
  N   N27       1.0  0.47469  0.77024  0.40985  1.0000
  H   H46       1.0  0.47447  0.80990  0.46994  1.0000
  N   N28       1.0  0.45130  0.71343  0.51142  1.0000
  O   O27       1.0  0.46941  0.71557  0.57667  1.0000
  O   O28       1.0  0.42139  0.69594  0.53431  1.0000
  C   C99       1.0  0.35608  0.80706  0.35764  1.0000
  C   C100      1.0  0.29069  0.75122  0.35219  1.0000
  C   C101      1.0  0.30878  0.76011  0.43447  1.0000
  C   C102      1.0  0.34136  0.78794  0.43547  1.0000
  H   H47       1.0  0.35550  0.79262  0.49226  1.0000
  C   C103      1.0  0.26011  0.72057  0.33879  1.0000
  C   C104      1.0  0.20393  0.65536  0.33422  1.0000
  C   C105      1.0  0.21197  0.67570  0.41087  1.0000
  N   N29       1.0  0.23933  0.70641  0.41016  1.0000
  H   H48       1.0  0.19965  0.66652  0.47021  1.0000
  N   N30       1.0  0.29603  0.73996  0.51204  1.0000
  O   O29       1.0  0.29386  0.75602  0.57704  1.0000
  O   O30       1.0  0.31348  0.72755  0.53532  1.0000
  C   C106      1.0  0.80724  0.45856  0.36056  1.0000
  C   C107      1.0  0.75053  0.46656  0.35359  1.0000
  C   C108      1.0  0.75909  0.45696  0.43574  1.0000
  C   C109      1.0  0.78741  0.45302  0.43757  1.0000
  H   H49       1.0  0.79188  0.44322  0.49398  1.0000
  C   C110      1.0  0.71959  0.46574  0.33919  1.0000
  C   C111      1.0  0.65382  0.45500  0.33288  1.0000
  C   C112      1.0  0.67398  0.46807  0.40963  1.0000
  N   N31       1.0  0.70498  0.47213  0.40987  1.0000
  H   H50       1.0  0.66448  0.47100  0.46867  1.0000
  N   N32       1.0  0.73815  0.44835  0.51200  1.0000
  O   O31       1.0  0.75332  0.46611  0.57857  1.0000
  O   O32       1.0  0.72618  0.41834  0.53327  1.0000
  C   C113      1.0  0.55109  0.35065  0.36018  1.0000
  C   C114      1.0  0.54313  0.28593  0.35351  1.0000
  C   C115      1.0  0.55278  0.30414  0.43556  1.0000
  C   C116      1.0  0.55677  0.33643  0.43714  1.0000
  H   H51       1.0  0.56650  0.35070  0.49359  1.0000
  C   C117      1.0  0.54395  0.25581  0.33923  1.0000
  C   C118      1.0  0.55460  0.20066  0.33299  1.0000
  C   C119      1.0  0.54180  0.20800  0.40988  1.0000
  N   N33       1.0  0.53766  0.23488  0.41006  1.0000
  H   H52       1.0  0.53876  0.19550  0.46886  1.0000
  N   N34       1.0  0.56144  0.29189  0.51189  1.0000
  O   O33       1.0  0.54373  0.28938  0.57851  1.0000
  O   O34       1.0  0.59146  0.30994  0.53296  1.0000
  C   C120      1.0  0.65898  0.20236  0.36028  1.0000
  C   C121      1.0  0.72365  0.25912  0.35352  1.0000
  C   C122      1.0  0.70547  0.25054  0.43563  1.0000
  C   C123      1.0  0.67321  0.22221  0.43730  1.0000
  H   H53       1.0  0.65892  0.21766  0.49372  1.0000
  C   C124      1.0  0.75378  0.29006  0.33927  1.0000
  C   C125      1.0  0.80885  0.35584  0.33307  1.0000
  C   C126      1.0  0.80163  0.33570  0.40990  1.0000
  N   N35       1.0  0.77475  0.30467  0.41004  1.0000
  H   H54       1.0  0.81417  0.34514  0.46884  1.0000
  N   N36       1.0  0.71774  0.27145  0.51194  1.0000
  O   O35       1.0  0.72030  0.25628  0.57853  1.0000
  O   O36       1.0  0.69967  0.28340  0.53312  1.0000
