data_image0
_chemical_formula_structural       C3NCNC3H2C3H2NCHC6H4C6H4C9H4C8H4NCHNCHNCHNCHNCHNCHC2NC2NC2NC2NCNC2NC2NC2NC2NC3NC2NC2NC2NC2NC2NC2NC2NC2NC2NC2NC2NC2NC6H5C24H15C7H5C24H15C24H15C24H15C24H15C24H15C24H15C24H15C24H15C24H15C2NC2NC2NC2NC2NC2NC2NC2NC2NC2NC2NC2N2CHNCHCHNCHNCHN2CHNCHNCHNCHNCHNCH
_chemical_formula_sum              "C378 N54 H198"
_cell_length_a       75.5546
_cell_length_b       75.5546
_cell_length_c       14.9392
_cell_angle_alpha    90
_cell_angle_beta     90
_cell_angle_gamma    120

_space_group_name_H-M_alt    "P 1"
_space_group_IT_number       1

loop_
  _space_group_symop_operation_xyz
  'x, y, z'

loop_
  _atom_site_type_symbol
  _atom_site_label
  _atom_site_symmetry_multiplicity
  _atom_site_fract_x
  _atom_site_fract_y
  _atom_site_fract_z
  _atom_site_occupancy
  C   C1        1.0  0.02033  0.80726  0.32881  1.0000
  C   C2        1.0  0.00787  0.80383  0.25212  1.0000
  C   C3        1.0  0.01460  0.80912  0.17077  1.0000
  N   N1        1.0  0.02046  0.81373  0.09881  1.0000
  C   C4        1.0  0.01990  0.20094  0.34019  1.0000
  N   N2        1.0  0.00986  0.19298  0.26180  1.0000
  C   C5        1.0  0.05297  0.20688  0.28056  1.0000
  C   C6        1.0  0.04178  0.21188  0.34154  1.0000
  C   C7        1.0  0.05309  0.22820  0.40180  1.0000
  H   H1        1.0  0.04554  0.19517  0.23583  1.0000
  H   H2        1.0  0.04578  0.23276  0.44578  1.0000
  C   C8        1.0  0.05311  0.81154  0.38447  1.0000
  C   C9        1.0  0.04223  0.81832  0.33069  1.0000
  C   C10       1.0  0.05383  0.83665  0.28190  1.0000
  H   H3        1.0  0.04543  0.79846  0.42163  1.0000
  H   H4        1.0  0.04674  0.84270  0.24497  1.0000
  N   N3        1.0  0.01026  0.79915  0.40716  1.0000
  C   C11       1.0  0.00748  0.19772  0.41607  1.0000
  H   H5        1.0  0.01359  0.20283  0.47812  1.0000
  C   C12       1.0  0.11879  0.26630  0.34004  1.0000
  C   C13       1.0  0.10762  0.24469  0.34039  1.0000
  C   C14       1.0  0.11869  0.23414  0.33976  1.0000
  C   C15       1.0  0.08574  0.23379  0.34090  1.0000
  C   C16       1.0  0.07449  0.21748  0.28074  1.0000
  C   C17       1.0  0.07462  0.23902  0.40111  1.0000
  H   H6        1.0  0.08190  0.21338  0.23511  1.0000
  H   H7        1.0  0.08214  0.25063  0.44620  1.0000
  H   H8        1.0  0.11075  0.21852  0.34300  1.0000
  H   H9        1.0  0.11092  0.27405  0.33733  1.0000
  C   C18       1.0  0.10826  0.85126  0.33847  1.0000
  C   C19       1.0  0.11943  0.84077  0.33839  1.0000
  C   C20       1.0  0.11952  0.87291  0.33970  1.0000
  C   C21       1.0  0.08628  0.84037  0.33671  1.0000
  C   C22       1.0  0.07464  0.82228  0.38719  1.0000
  C   C23       1.0  0.07534  0.84732  0.28426  1.0000
  H   H10       1.0  0.08174  0.81684  0.42790  1.0000
  H   H11       1.0  0.08296  0.86021  0.24593  1.0000
  H   H12       1.0  0.11158  0.82515  0.33760  1.0000
  H   H13       1.0  0.11184  0.88084  0.34297  1.0000
  C   C24       1.0  0.14033  0.24452  0.33850  1.0000
  C   C25       1.0  0.15082  0.26618  0.33841  1.0000
  C   C26       1.0  0.14044  0.27745  0.33926  1.0000
  C   C27       1.0  0.15145  0.29943  0.33960  1.0000
  C   C28       1.0  0.15565  0.33214  0.39346  1.0000
  C   C29       1.0  0.14488  0.31063  0.39255  1.0000
  C   C30       1.0  0.15122  0.23344  0.33675  1.0000
  C   C31       1.0  0.15494  0.20470  0.28196  1.0000
  C   C32       1.0  0.14427  0.21554  0.28429  1.0000
  H   H14       1.0  0.14889  0.19156  0.24503  1.0000
  H   H15       1.0  0.13138  0.21027  0.24598  1.0000
  H   H16       1.0  0.13220  0.30320  0.43227  1.0000
  H   H17       1.0  0.14988  0.33942  0.43089  1.0000
  C   C33       1.0  0.14109  0.85116  0.33925  1.0000
  C   C34       1.0  0.15158  0.87280  0.34003  1.0000
  C   C35       1.0  0.14114  0.88397  0.34038  1.0000
  C   C36       1.0  0.15206  0.84015  0.33961  1.0000
  C   C37       1.0  0.14564  0.82234  0.28710  1.0000
  C   C38       1.0  0.15633  0.81149  0.28837  1.0000
  C   C39       1.0  0.15212  0.90585  0.34091  1.0000
  C   C40       1.0  0.14706  0.91710  0.28075  1.0000
  H   H18       1.0  0.13556  0.90970  0.23506  1.0000
  H   H19       1.0  0.15372  0.94606  0.23580  1.0000
  H   H20       1.0  0.15096  0.79862  0.24980  1.0000
  H   H21       1.0  0.13320  0.81720  0.24595  1.0000
  N   N4        1.0  0.19255  0.37522  0.26393  1.0000
  C   C41       1.0  0.20333  0.39583  0.25384  1.0000
  H   H22       1.0  0.20804  0.40177  0.19123  1.0000
  N   N5        1.0  0.61636  0.80483  0.26391  1.0000
  C   C42       1.0  0.59575  0.79500  0.25382  1.0000
  H   H23       1.0  0.58981  0.79377  0.19120  1.0000
  N   N6        1.0  0.18675  0.79905  0.26396  1.0000
  C   C43       1.0  0.19659  0.78829  0.25387  1.0000
  H   H24       1.0  0.19780  0.78355  0.19127  1.0000
  N   N7        1.0  0.80457  0.61086  0.26398  1.0000
  C   C44       1.0  0.79380  0.59025  0.25390  1.0000
  H   H25       1.0  0.78906  0.58430  0.19130  1.0000
  N   N8        1.0  0.38074  0.18123  0.26398  1.0000
  C   C45       1.0  0.40135  0.19108  0.25387  1.0000
  H   H26       1.0  0.40729  0.19228  0.19128  1.0000
  N   N9        1.0  0.81038  0.18704  0.26401  1.0000
  C   C46       1.0  0.80055  0.19783  0.25392  1.0000
  H   H27       1.0  0.79932  0.20253  0.19131  1.0000
  C   C47       1.0  0.18432  0.20058  0.32887  1.0000
  C   C48       1.0  0.20647  0.17960  0.34023  1.0000
  N   N10       1.0  0.19850  0.18168  0.26184  1.0000
  C   C49       1.0  0.18772  0.19153  0.25220  1.0000
  C   C50       1.0  0.18247  0.19300  0.17083  1.0000
  N   N11       1.0  0.17789  0.19427  0.09884  1.0000
  C   C51       1.0  0.79098  0.97125  0.32885  1.0000
  C   C52       1.0  0.81196  0.01438  0.34019  1.0000
  N   N12       1.0  0.80988  0.00434  0.26179  1.0000
  C   C53       1.0  0.80001  0.98371  0.25214  1.0000
  C   C54       1.0  0.79857  0.97698  0.17081  1.0000
  N   N13       1.0  0.79733  0.97112  0.09885  1.0000
  C   C55       1.0  0.97720  0.78512  0.34018  1.0000
  N   N14       1.0  0.98725  0.79307  0.26177  1.0000
  C   C56       1.0  0.81276  0.78548  0.32885  1.0000
  C   C57       1.0  0.79062  0.80646  0.34023  1.0000
  N   N15       1.0  0.79857  0.80437  0.26182  1.0000
  C   C58       1.0  0.80933  0.79450  0.25216  1.0000
  C   C59       1.0  0.81462  0.79306  0.17081  1.0000
  N   N16       1.0  0.81923  0.79181  0.09884  1.0000
  C   C60       1.0  0.20611  0.01482  0.32886  1.0000
  C   C61       1.0  0.18513  0.97169  0.34020  1.0000
  N   N17       1.0  0.18722  0.98173  0.26180  1.0000
  C   C62       1.0  0.19709  0.00236  0.25215  1.0000
  C   C63       1.0  0.19853  0.00909  0.17081  1.0000
  N   N18       1.0  0.19978  0.01495  0.09884  1.0000
  C   C64       1.0  0.97677  0.17880  0.32885  1.0000
  C   C65       1.0  0.98923  0.18221  0.25216  1.0000
  C   C66       1.0  0.98250  0.17694  0.17081  1.0000
  N   N19       1.0  0.97665  0.17234  0.09883  1.0000
  C   C67       1.0  0.22438  0.62457  0.33207  1.0000
  C   C68       1.0  0.22355  0.58690  0.34173  1.0000
  N   N20       1.0  0.22774  0.59778  0.26431  1.0000
  C   C69       1.0  0.22787  0.61573  0.25491  1.0000
  C   C70       1.0  0.23374  0.62461  0.17735  1.0000
  N   N21       1.0  0.23889  0.63236  0.10868  1.0000
  C   C71       1.0  0.36708  0.58727  0.33200  1.0000
  C   C72       1.0  0.40473  0.62414  0.34171  1.0000
  N   N22       1.0  0.39385  0.61744  0.26427  1.0000
  C   C73       1.0  0.37592  0.59961  0.25486  1.0000
  C   C74       1.0  0.36705  0.59658  0.17727  1.0000
  N   N23       1.0  0.35930  0.59397  0.10857  1.0000
  C   C75       1.0  0.40431  0.76732  0.33195  1.0000
  C   C76       1.0  0.36746  0.76813  0.34171  1.0000
  N   N24       1.0  0.37415  0.76394  0.26427  1.0000
  C   C77       1.0  0.39197  0.76382  0.25483  1.0000
  C   C78       1.0  0.39499  0.75796  0.17725  1.0000
  N   N25       1.0  0.39759  0.75282  0.10857  1.0000
  C   C79       1.0  0.77282  0.36154  0.33185  1.0000
  C   C80       1.0  0.77353  0.39915  0.34168  1.0000
  N   N26       1.0  0.76938  0.38830  0.26419  1.0000
  C   C81       1.0  0.76925  0.37036  0.25480  1.0000
  C   C82       1.0  0.76351  0.36152  0.17710  1.0000
  N   N27       1.0  0.75847  0.35381  0.10830  1.0000
  C   C83       1.0  0.63004  0.39881  0.33185  1.0000
  C   C84       1.0  0.59242  0.36191  0.34164  1.0000
  N   N28       1.0  0.60328  0.36861  0.26418  1.0000
  C   C85       1.0  0.62123  0.38642  0.25480  1.0000
  C   C86       1.0  0.63007  0.38952  0.17711  1.0000
  N   N29       1.0  0.63779  0.39219  0.10832  1.0000
  C   C87       1.0  0.59279  0.21877  0.33190  1.0000
  C   C88       1.0  0.62968  0.21802  0.34170  1.0000
  N   N30       1.0  0.62299  0.22219  0.26423  1.0000
  C   C89       1.0  0.60518  0.22234  0.25486  1.0000
  C   C90       1.0  0.60209  0.22809  0.17717  1.0000
  N   N31       1.0  0.59942  0.23314  0.10839  1.0000
  C   C91       1.0  0.16925  0.31082  0.28707  1.0000
  C   C92       1.0  0.18010  0.33235  0.28836  1.0000
  C   C93       1.0  0.17372  0.34348  0.34265  1.0000
  C   C94       1.0  0.16931  0.23988  0.38722  1.0000
  C   C95       1.0  0.18005  0.22909  0.38453  1.0000
  C   C96       1.0  0.17327  0.21143  0.33074  1.0000
  H   H28       1.0  0.19313  0.23449  0.42165  1.0000
  H   H29       1.0  0.17475  0.25242  0.42793  1.0000
  H   H30       1.0  0.19297  0.33985  0.24977  1.0000
  H   H31       1.0  0.17440  0.30352  0.24595  1.0000
  H   H32       1.0  0.16644  0.27395  0.33762  1.0000
  C   C97       1.0  0.74706  0.88332  0.33852  1.0000
  C   C98       1.0  0.72540  0.87215  0.33842  1.0000
  C   C99       1.0  0.71413  0.85050  0.33928  1.0000
  C   C100      1.0  0.72528  0.84000  0.34008  1.0000
  C   C101      1.0  0.74689  0.85045  0.34044  1.0000
  C   C102      1.0  0.75744  0.87206  0.33980  1.0000
  C   C103      1.0  0.69214  0.83952  0.33961  1.0000
  C   C104      1.0  0.68076  0.84594  0.28707  1.0000
  C   C105      1.0  0.65923  0.83525  0.28833  1.0000
  C   C106      1.0  0.64809  0.81774  0.34264  1.0000
  C   C107      1.0  0.65944  0.81102  0.39346  1.0000
  C   C108      1.0  0.68095  0.82176  0.39256  1.0000
  C   C109      1.0  0.75814  0.90530  0.33675  1.0000
  C   C110      1.0  0.75169  0.91695  0.38722  1.0000
  C   C111      1.0  0.76248  0.93847  0.38452  1.0000
  C   C112      1.0  0.78014  0.94935  0.33073  1.0000
  C   C113      1.0  0.78687  0.93775  0.28196  1.0000
  C   C114      1.0  0.77603  0.91624  0.28431  1.0000
  C   C115      1.0  0.75779  0.83947  0.34097  1.0000
  C   C116      1.0  0.77411  0.84453  0.28082  1.0000
  C   C117      1.0  0.78470  0.83361  0.28061  1.0000
  C   C118      1.0  0.77970  0.81741  0.34160  1.0000
  C   C119      1.0  0.76339  0.81242  0.40192  1.0000
  C   C120      1.0  0.75257  0.82313  0.40121  1.0000
  H   H33       1.0  0.75708  0.94615  0.42162  1.0000
  H   H34       1.0  0.73915  0.90985  0.42792  1.0000
  H   H35       1.0  0.80002  0.94485  0.24505  1.0000
  H   H36       1.0  0.78131  0.90863  0.24602  1.0000
  H   H37       1.0  0.77819  0.85603  0.23512  1.0000
  H   H38       1.0  0.79639  0.83786  0.23584  1.0000
  H   H39       1.0  0.74096  0.81903  0.44628  1.0000
  H   H40       1.0  0.75882  0.80054  0.44585  1.0000
  H   H41       1.0  0.68838  0.81651  0.43229  1.0000
  H   H42       1.0  0.65216  0.79797  0.43090  1.0000
  H   H43       1.0  0.65172  0.84063  0.24977  1.0000
  H   H44       1.0  0.68805  0.85838  0.24595  1.0000
  H   H45       1.0  0.71762  0.88000  0.33762  1.0000
  H   H46       1.0  0.77306  0.87975  0.34304  1.0000
  H   H47       1.0  0.71753  0.82437  0.33739  1.0000
  C   C121      1.0  0.17384  0.81788  0.34270  1.0000
  C   C122      1.0  0.18055  0.83594  0.39350  1.0000
  C   C123      1.0  0.16982  0.84672  0.39258  1.0000
  C   C124      1.0  0.15799  0.93862  0.28054  1.0000
  C   C125      1.0  0.17418  0.94981  0.34155  1.0000
  C   C126      1.0  0.17917  0.93850  0.40185  1.0000
  C   C127      1.0  0.16846  0.91697  0.40116  1.0000
  H   H48       1.0  0.17255  0.90944  0.44622  1.0000
  H   H49       1.0  0.19104  0.94580  0.44582  1.0000
  H   H50       1.0  0.17507  0.85940  0.43226  1.0000
  H   H51       1.0  0.19361  0.84172  0.43090  1.0000
  H   H52       1.0  0.16721  0.88068  0.33735  1.0000
  C   C128      1.0  0.85677  0.74156  0.33849  1.0000
  C   C129      1.0  0.84629  0.71990  0.33841  1.0000
  C   C130      1.0  0.85667  0.70862  0.33928  1.0000
  C   C131      1.0  0.87832  0.71978  0.34006  1.0000
  C   C132      1.0  0.88948  0.74139  0.34039  1.0000
  C   C133      1.0  0.87842  0.75194  0.33972  1.0000
  C   C134      1.0  0.84566  0.68664  0.33964  1.0000
  C   C135      1.0  0.82785  0.67526  0.28712  1.0000
  C   C136      1.0  0.81701  0.65372  0.28838  1.0000
  C   C137      1.0  0.82339  0.64260  0.34272  1.0000
  C   C138      1.0  0.84146  0.65394  0.39352  1.0000
  C   C139      1.0  0.85223  0.67546  0.39261  1.0000
  C   C140      1.0  0.84588  0.75264  0.33674  1.0000
  C   C141      1.0  0.82779  0.74620  0.38725  1.0000
  C   C142      1.0  0.81705  0.75698  0.38451  1.0000
  C   C143      1.0  0.82383  0.77463  0.33073  1.0000
  C   C144      1.0  0.84215  0.78136  0.28191  1.0000
  C   C145      1.0  0.85283  0.77053  0.28428  1.0000
  C   C146      1.0  0.91136  0.75229  0.34091  1.0000
  C   C147      1.0  0.92262  0.76860  0.28073  1.0000
  C   C148      1.0  0.94413  0.77919  0.28055  1.0000
  C   C149      1.0  0.95533  0.77419  0.34154  1.0000
  C   C150      1.0  0.94401  0.75788  0.40182  1.0000
  C   C151      1.0  0.92248  0.74707  0.40115  1.0000
  H   H53       1.0  0.80397  0.75158  0.42167  1.0000
  H   H54       1.0  0.82235  0.73365  0.42793  1.0000
  H   H55       1.0  0.84820  0.79451  0.24501  1.0000
  H   H56       1.0  0.86571  0.77580  0.24594  1.0000
  H   H57       1.0  0.91521  0.77269  0.23507  1.0000
  H   H58       1.0  0.95157  0.79090  0.23579  1.0000
  H   H59       1.0  0.91496  0.73546  0.44624  1.0000
  H   H60       1.0  0.95132  0.75332  0.44582  1.0000
  H   H61       1.0  0.86491  0.68288  0.43231  1.0000
  H   H62       1.0  0.84723  0.64667  0.43095  1.0000
  H   H63       1.0  0.80414  0.64622  0.24981  1.0000
  H   H64       1.0  0.82271  0.68255  0.24596  1.0000
  H   H65       1.0  0.83066  0.71212  0.33764  1.0000
  H   H66       1.0  0.88635  0.76756  0.34298  1.0000
  H   H67       1.0  0.88619  0.71202  0.33737  1.0000
  C   C152      1.0  0.25004  0.10275  0.33851  1.0000
  C   C153      1.0  0.27170  0.11392  0.33842  1.0000
  C   C154      1.0  0.28297  0.13557  0.33928  1.0000
  C   C155      1.0  0.27182  0.14607  0.34009  1.0000
  C   C156      1.0  0.25021  0.13562  0.34041  1.0000
  C   C157      1.0  0.23966  0.11401  0.33974  1.0000
  C   C158      1.0  0.30495  0.14654  0.33964  1.0000
  C   C159      1.0  0.31635  0.14013  0.28713  1.0000
  C   C160      1.0  0.33788  0.15081  0.28840  1.0000
  C   C161      1.0  0.34901  0.16833  0.34272  1.0000
  C   C162      1.0  0.33766  0.17504  0.39353  1.0000
  C   C163      1.0  0.31615  0.16430  0.39261  1.0000
  C   C164      1.0  0.23896  0.08077  0.33675  1.0000
  C   C165      1.0  0.24540  0.06912  0.38725  1.0000
  C   C166      1.0  0.23462  0.04760  0.38451  1.0000
  C   C167      1.0  0.21696  0.03672  0.33075  1.0000
  C   C168      1.0  0.21023  0.04832  0.28196  1.0000
  C   C169      1.0  0.22106  0.06983  0.28430  1.0000
  C   C170      1.0  0.23931  0.14661  0.34093  1.0000
  C   C171      1.0  0.22299  0.14154  0.28079  1.0000
  C   C172      1.0  0.21240  0.15246  0.28061  1.0000
  C   C173      1.0  0.21740  0.16866  0.34157  1.0000
  C   C174      1.0  0.23372  0.17366  0.40186  1.0000
  C   C175      1.0  0.24453  0.16295  0.40116  1.0000
  H   H68       1.0  0.24001  0.03991  0.42166  1.0000
  H   H69       1.0  0.25794  0.07622  0.42792  1.0000
  H   H70       1.0  0.19709  0.04122  0.24501  1.0000
  H   H71       1.0  0.21579  0.07744  0.24596  1.0000
  H   H72       1.0  0.21890  0.13003  0.23513  1.0000
  H   H73       1.0  0.20070  0.14819  0.23586  1.0000
  H   H74       1.0  0.25615  0.16704  0.44621  1.0000
  H   H75       1.0  0.23829  0.18554  0.44579  1.0000
  H   H76       1.0  0.30872  0.16955  0.43232  1.0000
  H   H77       1.0  0.34494  0.18809  0.43095  1.0000
  H   H78       1.0  0.34538  0.14545  0.24980  1.0000
  H   H79       1.0  0.30905  0.12769  0.24596  1.0000
  H   H80       1.0  0.27948  0.10607  0.33763  1.0000
  H   H81       1.0  0.22404  0.10632  0.34300  1.0000
  H   H82       1.0  0.27958  0.16169  0.33737  1.0000
  C   C176      1.0  0.88884  0.13481  0.33849  1.0000
  C   C177      1.0  0.87768  0.14530  0.33841  1.0000
  C   C178      1.0  0.85602  0.13492  0.33928  1.0000
  C   C179      1.0  0.84552  0.11327  0.34009  1.0000
  C   C180      1.0  0.85597  0.10210  0.34040  1.0000
  C   C181      1.0  0.87758  0.11316  0.33972  1.0000
  C   C182      1.0  0.84506  0.14593  0.33963  1.0000
  C   C183      1.0  0.85147  0.16373  0.28709  1.0000
  C   C184      1.0  0.84079  0.17459  0.28840  1.0000
  C   C185      1.0  0.82328  0.16821  0.34274  1.0000
  C   C186      1.0  0.81657  0.15015  0.39356  1.0000
  C   C187      1.0  0.82730  0.13936  0.39261  1.0000
  C   C188      1.0  0.91082  0.14570  0.33673  1.0000
  C   C189      1.0  0.92247  0.16378  0.38724  1.0000
  C   C190      1.0  0.94399  0.17453  0.38450  1.0000
  C   C191      1.0  0.95487  0.16774  0.33071  1.0000
  C   C192      1.0  0.94327  0.14941  0.28194  1.0000
  C   C193      1.0  0.92176  0.13875  0.28427  1.0000
  C   C194      1.0  0.84498  0.08022  0.34092  1.0000
  C   C195      1.0  0.85004  0.06896  0.28075  1.0000
  C   C196      1.0  0.83911  0.04745  0.28055  1.0000
  C   C197      1.0  0.82291  0.03626  0.34153  1.0000
  C   C198      1.0  0.81791  0.04757  0.40181  1.0000
  C   C199      1.0  0.82864  0.06910  0.40115  1.0000
  H   H83       1.0  0.95168  0.18760  0.42164  1.0000
  H   H84       1.0  0.91537  0.16923  0.42792  1.0000
  H   H85       1.0  0.95036  0.14336  0.24500  1.0000
  H   H86       1.0  0.91415  0.12586  0.24596  1.0000
  H   H87       1.0  0.86155  0.07637  0.23510  1.0000
  H   H88       1.0  0.84338  0.04001  0.23582  1.0000
  H   H89       1.0  0.82455  0.07663  0.44622  1.0000
  H   H90       1.0  0.80605  0.04027  0.44581  1.0000
  H   H91       1.0  0.82205  0.12669  0.43233  1.0000
  H   H92       1.0  0.80351  0.14438  0.43097  1.0000
  H   H93       1.0  0.84616  0.18746  0.24980  1.0000
  H   H94       1.0  0.86391  0.16888  0.24596  1.0000
  H   H95       1.0  0.88553  0.16092  0.33762  1.0000
  H   H96       1.0  0.88527  0.10523  0.34298  1.0000
  H   H97       1.0  0.82990  0.10540  0.33737  1.0000
  C   C200      1.0  0.24945  0.52843  0.33742  1.0000
  C   C201      1.0  0.23907  0.50694  0.33027  1.0000
  C   C202      1.0  0.24993  0.49613  0.32660  1.0000
  C   C203      1.0  0.27161  0.50744  0.32828  1.0000
  C   C204      1.0  0.28232  0.52897  0.33656  1.0000
  C   C205      1.0  0.27098  0.53918  0.34010  1.0000
  C   C206      1.0  0.23919  0.47427  0.32577  1.0000
  C   C207      1.0  0.22325  0.46300  0.38759  1.0000
  C   C208      1.0  0.21285  0.44150  0.38849  1.0000
  C   C209      1.0  0.21771  0.43033  0.32681  1.0000
  C   C210      1.0  0.23365  0.44165  0.26489  1.0000
  C   C211      1.0  0.24430  0.46319  0.26487  1.0000
  C   C212      1.0  0.23905  0.53966  0.34391  1.0000
  C   C213      1.0  0.22973  0.54263  0.26795  1.0000
  C   C214      1.0  0.22373  0.55754  0.26873  1.0000
  C   C215      1.0  0.22663  0.56973  0.34551  1.0000
  C   C216      1.0  0.23523  0.56600  0.42251  1.0000
  C   C217      1.0  0.24146  0.55132  0.42158  1.0000
  C   C218      1.0  0.30403  0.54075  0.34250  1.0000
  C   C219      1.0  0.31323  0.55517  0.41230  1.0000
  C   C220      1.0  0.33416  0.56972  0.41016  1.0000
  C   C221      1.0  0.34666  0.57044  0.33804  1.0000
  C   C222      1.0  0.33768  0.55515  0.27127  1.0000
  C   C223      1.0  0.31667  0.54050  0.27334  1.0000
  H   H98       1.0  0.21796  0.56000  0.21106  1.0000
  H   H99       1.0  0.22862  0.53505  0.20954  1.0000
  H   H100      1.0  0.23861  0.57501  0.47810  1.0000
  H   H101      1.0  0.24889  0.55006  0.47642  1.0000
  H   H102      1.0  0.30452  0.55595  0.46300  1.0000
  H   H103      1.0  0.33983  0.58067  0.45909  1.0000
  H   H104      1.0  0.31045  0.53054  0.22090  1.0000
  H   H105      1.0  0.34625  0.55496  0.21865  1.0000
  H   H106      1.0  0.25571  0.47075  0.21895  1.0000
  H   H107      1.0  0.23811  0.43434  0.22039  1.0000
  H   H108      1.0  0.20142  0.43407  0.43445  1.0000
  H   H109      1.0  0.21930  0.47038  0.43403  1.0000
  H   H110      1.0  0.22343  0.49911  0.32886  1.0000
  H   H111      1.0  0.27855  0.55482  0.34411  1.0000
  H   H112      1.0  0.27970  0.49989  0.32841  1.0000
  C   C224      1.0  0.46315  0.70854  0.33733  1.0000
  C   C225      1.0  0.48464  0.71964  0.33019  1.0000
  C   C226      1.0  0.49545  0.74131  0.32652  1.0000
  C   C227      1.0  0.48414  0.75168  0.32818  1.0000
  C   C228      1.0  0.46261  0.74086  0.33644  1.0000
  C   C229      1.0  0.45239  0.71931  0.34001  1.0000
  C   C230      1.0  0.51731  0.75242  0.32570  1.0000
  C   C231      1.0  0.52857  0.74776  0.38753  1.0000
  C   C232      1.0  0.55007  0.75885  0.38844  1.0000
  C   C233      1.0  0.56125  0.77489  0.32676  1.0000
  C   C234      1.0  0.54993  0.77951  0.26483  1.0000
  C   C235      1.0  0.52839  0.76862  0.26480  1.0000
  C   C236      1.0  0.45192  0.68691  0.34394  1.0000
  C   C237      1.0  0.44897  0.67461  0.26802  1.0000
  C   C238      1.0  0.43409  0.65369  0.26880  1.0000
  C   C239      1.0  0.42188  0.64440  0.34552  1.0000
  C   C240      1.0  0.42557  0.65673  0.42247  1.0000
  C   C241      1.0  0.44024  0.67765  0.42156  1.0000
  C   C242      1.0  0.45083  0.75079  0.34242  1.0000
  C   C243      1.0  0.43641  0.74557  0.41220  1.0000
  C   C244      1.0  0.42187  0.75197  0.41016  1.0000
  C   C245      1.0  0.42114  0.76373  0.33801  1.0000
  C   C246      1.0  0.43643  0.77005  0.27121  1.0000
  C   C247      1.0  0.45109  0.76370  0.27330  1.0000
  H   H113      1.0  0.43164  0.64546  0.21112  1.0000
  H   H114      1.0  0.45657  0.68107  0.20963  1.0000
  H   H115      1.0  0.41654  0.65109  0.47802  1.0000
  H   H116      1.0  0.44147  0.68634  0.47634  1.0000
  H   H117      1.0  0.43564  0.73609  0.46294  1.0000
  H   H118      1.0  0.41092  0.74668  0.45905  1.0000
  H   H119      1.0  0.46103  0.76741  0.22079  1.0000
  H   H120      1.0  0.43661  0.77879  0.21856  1.0000
  H   H121      1.0  0.52083  0.77247  0.21886  1.0000
  H   H122      1.0  0.55724  0.79127  0.22034  1.0000
  H   H123      1.0  0.55750  0.75486  0.43441  1.0000
  H   H124      1.0  0.52119  0.73643  0.43397  1.0000
  H   H125      1.0  0.49246  0.71182  0.32883  1.0000
  H   H126      1.0  0.43676  0.71124  0.34405  1.0000
  H   H127      1.0  0.49168  0.76732  0.32830  1.0000
  C   C248      1.0  0.28308  0.74218  0.33742  1.0000
  C   C249      1.0  0.27196  0.75255  0.33029  1.0000
  C   C250      1.0  0.25030  0.74169  0.32666  1.0000
  C   C251      1.0  0.23993  0.72001  0.32843  1.0000
  C   C252      1.0  0.25076  0.70930  0.33659  1.0000
  C   C253      1.0  0.27231  0.72065  0.34011  1.0000
  C   C254      1.0  0.23917  0.75243  0.32581  1.0000
  C   C255      1.0  0.24384  0.76836  0.38763  1.0000
  C   C256      1.0  0.23274  0.77876  0.38853  1.0000
  C   C257      1.0  0.21670  0.77390  0.32685  1.0000
  C   C258      1.0  0.21207  0.75794  0.26497  1.0000
  C   C259      1.0  0.22297  0.74730  0.26493  1.0000
  C   C260      1.0  0.30470  0.75258  0.34402  1.0000
  C   C261      1.0  0.31700  0.76194  0.26808  1.0000
  C   C262      1.0  0.33792  0.76794  0.26883  1.0000
  C   C263      1.0  0.34722  0.76505  0.34558  1.0000
  C   C264      1.0  0.33488  0.75643  0.42257  1.0000
  C   C265      1.0  0.31397  0.75018  0.42166  1.0000
  C   C266      1.0  0.24084  0.68759  0.34256  1.0000
  C   C267      1.0  0.24608  0.67840  0.41235  1.0000
  C   C268      1.0  0.23970  0.65748  0.41028  1.0000
  C   C269      1.0  0.22795  0.64498  0.33812  1.0000
  C   C270      1.0  0.22162  0.65394  0.27132  1.0000
  C   C271      1.0  0.22793  0.67494  0.27347  1.0000
  H   H128      1.0  0.34613  0.77369  0.21110  1.0000
  H   H129      1.0  0.31053  0.76301  0.20960  1.0000
  H   H130      1.0  0.34053  0.75305  0.47814  1.0000
  H   H131      1.0  0.30528  0.74274  0.47648  1.0000
  H   H132      1.0  0.25552  0.68711  0.46315  1.0000
  H   H133      1.0  0.24496  0.65181  0.45927  1.0000
  H   H134      1.0  0.22424  0.68117  0.22085  1.0000
  H   H135      1.0  0.21289  0.64538  0.21864  1.0000
  H   H136      1.0  0.21913  0.73590  0.21898  1.0000
  H   H137      1.0  0.20032  0.75350  0.22041  1.0000
  H   H138      1.0  0.23674  0.79019  0.43448  1.0000
  H   H139      1.0  0.25517  0.77231  0.43407  1.0000
  H   H140      1.0  0.27977  0.76820  0.32887  1.0000
  H   H141      1.0  0.28038  0.71309  0.34414  1.0000
  H   H142      1.0  0.22430  0.71191  0.32841  1.0000
  C   C272      1.0  0.74767  0.45765  0.33739  1.0000
  C   C273      1.0  0.75805  0.47914  0.33027  1.0000
  C   C274      1.0  0.74719  0.48995  0.32664  1.0000
  C   C275      1.0  0.72551  0.47863  0.32841  1.0000
  C   C276      1.0  0.71480  0.45710  0.33653  1.0000
  C   C277      1.0  0.72615  0.44689  0.34007  1.0000
  C   C278      1.0  0.75793  0.51181  0.32581  1.0000
  C   C279      1.0  0.77387  0.52307  0.38763  1.0000
  C   C280      1.0  0.78426  0.54457  0.38856  1.0000
  C   C281      1.0  0.77941  0.55575  0.32688  1.0000
  C   C282      1.0  0.76345  0.54443  0.26500  1.0000
  C   C283      1.0  0.75281  0.52289  0.26494  1.0000
  C   C284      1.0  0.75807  0.44643  0.34400  1.0000
  C   C285      1.0  0.76742  0.44347  0.26806  1.0000
  C   C286      1.0  0.77340  0.42855  0.26881  1.0000
  C   C287      1.0  0.77049  0.41634  0.34555  1.0000
  C   C288      1.0  0.76190  0.42008  0.42258  1.0000
  C   C289      1.0  0.75567  0.43476  0.42166  1.0000
  C   C290      1.0  0.69309  0.44532  0.34252  1.0000
  C   C291      1.0  0.68389  0.43088  0.41227  1.0000
  C   C292      1.0  0.66297  0.41632  0.41004  1.0000
  C   C293      1.0  0.65047  0.41562  0.33796  1.0000
  C   C294      1.0  0.65944  0.43094  0.27131  1.0000
  C   C295      1.0  0.68045  0.44559  0.27343  1.0000
  H   H143      1.0  0.77912  0.42606  0.21106  1.0000
  H   H144      1.0  0.76849  0.45101  0.20957  1.0000
  H   H145      1.0  0.75850  0.41104  0.47810  1.0000
  H   H146      1.0  0.74823  0.43601  0.47647  1.0000
  H   H147      1.0  0.69259  0.43010  0.46295  1.0000
  H   H148      1.0  0.65728  0.40537  0.45898  1.0000
  H   H149      1.0  0.68667  0.45554  0.22092  1.0000
  H   H150      1.0  0.65088  0.43113  0.21863  1.0000
  H   H151      1.0  0.74141  0.51533  0.21899  1.0000
  H   H152      1.0  0.75901  0.55174  0.22044  1.0000
  H   H153      1.0  0.79570  0.55200  0.43449  1.0000
  H   H154      1.0  0.77781  0.51569  0.43406  1.0000
  H   H155      1.0  0.77370  0.48697  0.32887  1.0000
  H   H156      1.0  0.71858  0.43125  0.34408  1.0000
  H   H157      1.0  0.71741  0.48618  0.32839  1.0000
  C   C296      1.0  0.53395  0.27756  0.33736  1.0000
  C   C297      1.0  0.51246  0.26645  0.33021  1.0000
  C   C298      1.0  0.50165  0.24478  0.32662  1.0000
  C   C299      1.0  0.51297  0.23441  0.32841  1.0000
  C   C300      1.0  0.53450  0.24524  0.33654  1.0000
  C   C301      1.0  0.54471  0.26679  0.34007  1.0000
  C   C302      1.0  0.47979  0.23366  0.32577  1.0000
  C   C303      1.0  0.46853  0.23833  0.38755  1.0000
  C   C304      1.0  0.44703  0.22723  0.38850  1.0000
  C   C305      1.0  0.43585  0.21119  0.32683  1.0000
  C   C306      1.0  0.44717  0.20656  0.26495  1.0000
  C   C307      1.0  0.46871  0.21746  0.26490  1.0000
  C   C308      1.0  0.54517  0.29919  0.34395  1.0000
  C   C309      1.0  0.54810  0.31148  0.26801  1.0000
  C   C310      1.0  0.56303  0.33238  0.26876  1.0000
  C   C311      1.0  0.57522  0.34169  0.34552  1.0000
  C   C312      1.0  0.57150  0.32935  0.42252  1.0000
  C   C313      1.0  0.55681  0.30844  0.42165  1.0000
  C   C314      1.0  0.54629  0.23532  0.34253  1.0000
  C   C315      1.0  0.56074  0.24056  0.41221  1.0000
  C   C316      1.0  0.57526  0.23415  0.41016  1.0000
  C   C317      1.0  0.57598  0.22238  0.33800  1.0000
  C   C318      1.0  0.56067  0.21604  0.27132  1.0000
  C   C319      1.0  0.54602  0.22241  0.27342  1.0000
  H   H158      1.0  0.56549  0.34060  0.21106  1.0000
  H   H159      1.0  0.54056  0.30500  0.20953  1.0000
  H   H160      1.0  0.58054  0.33499  0.47803  1.0000
  H   H161      1.0  0.55561  0.29975  0.47640  1.0000
  H   H162      1.0  0.56150  0.25003  0.46298  1.0000
  H   H163      1.0  0.58623  0.23944  0.45901  1.0000
  H   H164      1.0  0.53605  0.21866  0.22100  1.0000
  H   H165      1.0  0.56047  0.20728  0.21869  1.0000
  H   H166      1.0  0.47627  0.21360  0.21901  1.0000
  H   H167      1.0  0.43987  0.19480  0.22045  1.0000
  H   H168      1.0  0.43960  0.23123  0.43443  1.0000
  H   H169      1.0  0.47591  0.24966  0.43401  1.0000
  H   H170      1.0  0.50463  0.27426  0.32882  1.0000
  H   H171      1.0  0.56035  0.27487  0.34408  1.0000
  H   H172      1.0  0.50543  0.21878  0.32839  1.0000
  C   C320      1.0  0.71403  0.24389  0.33739  1.0000
  C   C321      1.0  0.72515  0.23352  0.33025  1.0000
  C   C322      1.0  0.74682  0.24439  0.32665  1.0000
  C   C323      1.0  0.75718  0.26607  0.32843  1.0000
  C   C324      1.0  0.74634  0.27677  0.33653  1.0000
  C   C325      1.0  0.72479  0.26542  0.34005  1.0000
  C   C326      1.0  0.75795  0.23366  0.32583  1.0000
  C   C327      1.0  0.75328  0.21772  0.38761  1.0000
  C   C328      1.0  0.76439  0.20733  0.38857  1.0000
  C   C329      1.0  0.78042  0.21219  0.32689  1.0000
  C   C330      1.0  0.78505  0.22815  0.26501  1.0000
  C   C331      1.0  0.77415  0.23878  0.26495  1.0000
  C   C332      1.0  0.69240  0.23348  0.34389  1.0000
  C   C333      1.0  0.68011  0.22418  0.26790  1.0000
  C   C334      1.0  0.65920  0.21817  0.26870  1.0000
  C   C335      1.0  0.64990  0.22104  0.34551  1.0000
  C   C336      1.0  0.66223  0.22962  0.42256  1.0000
  C   C337      1.0  0.68315  0.23586  0.42160  1.0000
  C   C338      1.0  0.75626  0.29848  0.34249  1.0000
  C   C339      1.0  0.75100  0.30769  0.41214  1.0000
  C   C340      1.0  0.75739  0.32861  0.40999  1.0000
  C   C341      1.0  0.76920  0.34112  0.33796  1.0000
  C   C342      1.0  0.77554  0.33214  0.27127  1.0000
  C   C343      1.0  0.76919  0.31113  0.27344  1.0000
  H   H173      1.0  0.65098  0.21242  0.21100  1.0000
  H   H174      1.0  0.68657  0.22306  0.20948  1.0000
  H   H175      1.0  0.65662  0.23306  0.47803  1.0000
  H   H176      1.0  0.69184  0.24333  0.47637  1.0000
  H   H177      1.0  0.74154  0.29899  0.46291  1.0000
  H   H178      1.0  0.75213  0.33430  0.45895  1.0000
  H   H179      1.0  0.77292  0.30490  0.22097  1.0000
  H   H180      1.0  0.78431  0.34070  0.21869  1.0000
  H   H181      1.0  0.77800  0.25020  0.21905  1.0000
  H   H182      1.0  0.79681  0.23260  0.22049  1.0000
  H   H183      1.0  0.76038  0.19590  0.43449  1.0000
  H   H184      1.0  0.74195  0.21377  0.43407  1.0000
  H   H185      1.0  0.71734  0.21788  0.32885  1.0000
  H   H186      1.0  0.71671  0.27298  0.34402  1.0000
  H   H187      1.0  0.77281  0.27417  0.32842  1.0000
  C   C344      1.0  0.18489  0.36539  0.34319  1.0000
  C   C345      1.0  0.20696  0.40847  0.32932  1.0000
  N   N32       1.0  0.19949  0.39865  0.40860  1.0000
  C   C346      1.0  0.18881  0.37806  0.41951  1.0000
  C   C347      1.0  0.18402  0.37159  0.50146  1.0000
  N   N33       1.0  0.17985  0.36596  0.57395  1.0000
  C   C348      1.0  0.62619  0.80701  0.34317  1.0000
  C   C349      1.0  0.58311  0.78600  0.32929  1.0000
  N   N34       1.0  0.59293  0.78835  0.40858  1.0000
  C   C350      1.0  0.61351  0.79826  0.41950  1.0000
  C   C351      1.0  0.61999  0.79994  0.50144  1.0000
  N   N35       1.0  0.62561  0.80140  0.57394  1.0000
  C   C352      1.0  0.18458  0.80671  0.34322  1.0000
  C   C353      1.0  0.20559  0.78464  0.32935  1.0000
  N   N36       1.0  0.20324  0.79211  0.40863  1.0000
  C   C354      1.0  0.19333  0.80280  0.41954  1.0000
  C   C355      1.0  0.19165  0.80759  0.50149  1.0000
  N   N37       1.0  0.19019  0.81175  0.57398  1.0000
  C   C356      1.0  0.81223  0.62069  0.34323  1.0000
  C   C357      1.0  0.79016  0.57761  0.32938  1.0000
  N   N38       1.0  0.79763  0.58743  0.40865  1.0000
  C   C358      1.0  0.80832  0.60802  0.41955  1.0000
  C   C359      1.0  0.81310  0.61449  0.50151  1.0000
  N   N39       1.0  0.81725  0.62011  0.57401  1.0000
  C   C360      1.0  0.37091  0.17907  0.34323  1.0000
  C   C361      1.0  0.41399  0.20008  0.32934  1.0000
  N   N40       1.0  0.40418  0.19774  0.40862  1.0000
  C   C362      1.0  0.38359  0.18785  0.41953  1.0000
  C   C363      1.0  0.37712  0.18614  0.50149  1.0000
  N   N41       1.0  0.37150  0.18465  0.57401  1.0000
  C   C364      1.0  0.81254  0.17938  0.34326  1.0000
  C   C365      1.0  0.79154  0.20145  0.32939  1.0000
  N   N42       1.0  0.79388  0.19397  0.40866  1.0000
  C   C366      1.0  0.80377  0.18327  0.41957  1.0000
  C   C367      1.0  0.80549  0.17852  0.50153  1.0000
  N   N43       1.0  0.80697  0.17439  0.57405  1.0000
  N   N44       1.0  0.19245  0.19864  0.40720  1.0000
  C   C368      1.0  0.20326  0.18882  0.41608  1.0000
  H   H188      1.0  0.20835  0.18780  0.47815  1.0000
  N   N45       1.0  0.79293  0.98132  0.40718  1.0000
  C   C369      1.0  0.80276  0.00196  0.41605  1.0000
  H   H189      1.0  0.80379  0.00807  0.47813  1.0000
  C   C370      1.0  0.98963  0.78835  0.41605  1.0000
  H   H190      1.0  0.98352  0.78326  0.47812  1.0000
  N   N46       1.0  0.80465  0.78743  0.40720  1.0000
  C   C371      1.0  0.79385  0.79726  0.41609  1.0000
  H   H191      1.0  0.78876  0.79828  0.47817  1.0000
  N   N47       1.0  0.20415  0.00475  0.40720  1.0000
  C   C372      1.0  0.19431  0.98411  0.41608  1.0000
  H   H192      1.0  0.19331  0.97800  0.47814  1.0000
  N   N48       1.0  0.98684  0.18692  0.40718  1.0000
  N   N49       1.0  0.22003  0.61359  0.40933  1.0000
  C   C373      1.0  0.21902  0.59524  0.41699  1.0000
  H   H193      1.0  0.21586  0.58827  0.47816  1.0000
  N   N50       1.0  0.37804  0.59393  0.40928  1.0000
  C   C374      1.0  0.39639  0.61126  0.41696  1.0000
  H   H194      1.0  0.40333  0.61511  0.47821  1.0000
  N   N51       1.0  0.39768  0.77165  0.40924  1.0000
  C   C375      1.0  0.38035  0.77269  0.41693  1.0000
  H   H195      1.0  0.37651  0.77578  0.47817  1.0000
  N   N52       1.0  0.77712  0.37250  0.40916  1.0000
  C   C376      1.0  0.77812  0.39084  0.41688  1.0000
  H   H196      1.0  0.78121  0.39777  0.47813  1.0000
  N   N53       1.0  0.61908  0.39215  0.40915  1.0000
  C   C377      1.0  0.60074  0.37481  0.41686  1.0000
  H   H197      1.0  0.59380  0.37098  0.47809  1.0000
  N   N54       1.0  0.59944  0.21446  0.40921  1.0000
  C   C378      1.0  0.61678  0.21345  0.41692  1.0000
  H   H198      1.0  0.62061  0.21033  0.47815  1.0000
