data_image0
_chemical_formula_structural       C3NC3NC5NC5NC20H18N4C3NC3NC5NC5NC20H18N4C3NC3NC5NC5NC20H18N4CN2CHCN2CHCN2CHCN2CHCN2CHCN2CHC8H8C8H8C8H8C3HC2H3OCHC3HC2H3OCHC3HC2H3OCHC3HC2H3OCHC3HC2H3OCHC3HC2H3OCH
_chemical_formula_sum              "C180 N36 H114 O6"
_cell_length_a       50.4965
_cell_length_b       50.4964
_cell_length_c       14.838
_cell_angle_alpha    90.0974
_cell_angle_beta     89.9026
_cell_angle_gamma    120

_space_group_name_H-M_alt    "P 1"
_space_group_IT_number       1

loop_
  _space_group_symop_operation_xyz
  'x, y, z'

loop_
  _atom_site_type_symbol
  _atom_site_label
  _atom_site_symmetry_multiplicity
  _atom_site_fract_x
  _atom_site_fract_y
  _atom_site_fract_z
  _atom_site_occupancy
  C   C1        1.0  0.05218  0.65374  0.32469  1.0000
  C   C2        1.0  0.02056  0.63795  0.32432  1.0000
  C   C3        1.0  0.01050  0.60666  0.32409  1.0000
  N   N1        1.0  0.03633  0.60469  0.32431  1.0000
  C   C4        1.0  0.06220  0.63247  0.32481  1.0000
  C   C5        1.0  0.09336  0.63985  0.32519  1.0000
  C   C6        1.0  0.10318  0.61791  0.32510  1.0000
  N   N2        1.0  0.08583  0.58706  0.32384  1.0000
  C   C7        1.0  0.10305  0.57341  0.32456  1.0000
  C   C8        1.0  0.13345  0.59711  0.32619  1.0000
  C   C9        1.0  0.13353  0.62445  0.32694  1.0000
  C   C10       1.0  0.09309  0.54162  0.32414  1.0000
  C   C11       1.0  0.06193  0.51787  0.32406  1.0000
  N   N3        1.0  0.03609  0.51984  0.32421  1.0000
  C   C12       1.0  0.01022  0.49206  0.32471  1.0000
  C   C13       1.0  0.02024  0.47079  0.32461  1.0000
  C   C14       1.0  0.05187  0.48658  0.32428  1.0000
  C   C15       1.0  0.97906  0.48468  0.32507  1.0000
  C   C16       1.0  0.96924  0.50661  0.32495  1.0000
  N   N4        1.0  0.98659  0.53747  0.32370  1.0000
  C   C17       1.0  0.96938  0.55112  0.32446  1.0000
  C   C18       1.0  0.93897  0.52741  0.32612  1.0000
  C   C19       1.0  0.93889  0.50008  0.32687  1.0000
  C   C20       1.0  0.97933  0.58291  0.32411  1.0000
  C   C21       1.0  0.95604  0.59111  0.32512  1.0000
  C   C22       1.0  0.90297  0.59758  0.32695  1.0000
  C   C23       1.0  0.91668  0.59665  0.24484  1.0000
  C   C24       1.0  0.94285  0.59344  0.24373  1.0000
  C   C25       1.0  0.95571  0.45319  0.32733  1.0000
  C   C26       1.0  0.90336  0.39330  0.33612  1.0000
  C   C27       1.0  0.91363  0.40867  0.25263  1.0000
  C   C28       1.0  0.93944  0.43824  0.24832  1.0000
  C   C29       1.0  0.11637  0.53340  0.32522  1.0000
  C   C30       1.0  0.12944  0.53075  0.24383  1.0000
  C   C31       1.0  0.15554  0.52742  0.24492  1.0000
  C   C32       1.0  0.16923  0.52658  0.32701  1.0000
  C   C33       1.0  0.11672  0.67134  0.32741  1.0000
  C   C34       1.0  0.13304  0.68623  0.24838  1.0000
  C   C35       1.0  0.16921  0.73113  0.33626  1.0000
  C   C36       1.0  0.15892  0.71576  0.25273  1.0000
  H   H1        1.0  0.17057  0.72555  0.19460  1.0000
  H   H2        1.0  0.12684  0.67519  0.18757  1.0000
  H   H3        1.0  0.06544  0.67703  0.32481  1.0000
  H   H4        1.0  0.00733  0.64801  0.32429  1.0000
  H   H5        1.0  0.03629  0.58566  0.32445  1.0000
  H   H6        1.0  0.03613  0.53887  0.32439  1.0000
  H   H7        1.0  0.15285  0.64547  0.32884  1.0000
  H   H8        1.0  0.15270  0.59528  0.32741  1.0000
  H   H9        1.0  0.12081  0.53250  0.18318  1.0000
  H   H10       1.0  0.16499  0.52638  0.18488  1.0000
  H   H11       1.0  0.06510  0.47652  0.32431  1.0000
  H   H12       1.0  0.00699  0.44750  0.32473  1.0000
  H   H13       1.0  0.91972  0.52925  0.32753  1.0000
  H   H14       1.0  0.91958  0.47906  0.32888  1.0000
  H   H15       1.0  0.94565  0.44924  0.18752  1.0000
  H   H16       1.0  0.90205  0.39881  0.19449  1.0000
  H   H17       1.0  0.95149  0.59160  0.18308  1.0000
  H   H18       1.0  0.90714  0.59744  0.18481  1.0000
  N   N5        1.0  0.87849  0.36590  0.34680  1.0000
  N   N6        1.0  0.19513  0.52548  0.32270  1.0000
  N   N7        1.0  0.19420  0.75845  0.34698  1.0000
  N   N8        1.0  0.87696  0.59847  0.32269  1.0000
  C   C37       1.0  0.44415  0.48558  0.32380  1.0000
  C   C38       1.0  0.45995  0.46976  0.32340  1.0000
  C   C39       1.0  0.49124  0.49099  0.32318  1.0000
  N   N9        1.0  0.49320  0.51879  0.32340  1.0000
  C   C40       1.0  0.46542  0.51687  0.32392  1.0000
  C   C41       1.0  0.45803  0.54065  0.32431  1.0000
  C   C42       1.0  0.47997  0.57241  0.32421  1.0000
  N   N10       1.0  0.51082  0.58592  0.32295  1.0000
  C   C43       1.0  0.52446  0.61678  0.32367  1.0000
  C   C44       1.0  0.50076  0.62348  0.32526  1.0000
  C   C45       1.0  0.47343  0.59622  0.32607  1.0000
  C   C46       1.0  0.55625  0.63861  0.32329  1.0000
  C   C47       1.0  0.58000  0.63121  0.32325  1.0000
  N   N11       1.0  0.57804  0.60340  0.32342  1.0000
  C   C48       1.0  0.60583  0.60532  0.32397  1.0000
  C   C49       1.0  0.62709  0.63661  0.32391  1.0000
  C   C50       1.0  0.61129  0.65244  0.32355  1.0000
  C   C51       1.0  0.61321  0.58155  0.32431  1.0000
  C   C52       1.0  0.59128  0.54979  0.32417  1.0000
  N   N12       1.0  0.56043  0.53628  0.32289  1.0000
  C   C53       1.0  0.54678  0.50542  0.32361  1.0000
  C   C54       1.0  0.57049  0.49873  0.32531  1.0000
  C   C55       1.0  0.59782  0.52598  0.32604  1.0000
  C   C56       1.0  0.51499  0.48358  0.32317  1.0000
  C   C57       1.0  0.50680  0.45209  0.32419  1.0000
  C   C58       1.0  0.50030  0.39255  0.32601  1.0000
  C   C59       1.0  0.50124  0.40711  0.24391  1.0000
  C   C60       1.0  0.50444  0.43648  0.24278  1.0000
  C   C61       1.0  0.64471  0.58970  0.32667  1.0000
  C   C62       1.0  0.70459  0.59725  0.33581  1.0000
  C   C63       1.0  0.68927  0.59206  0.25224  1.0000
  C   C64       1.0  0.65970  0.58830  0.24776  1.0000
  C   C65       1.0  0.56446  0.67011  0.32434  1.0000
  C   C66       1.0  0.56709  0.68574  0.24293  1.0000
  C   C67       1.0  0.57042  0.71517  0.24401  1.0000
  C   C68       1.0  0.57126  0.72978  0.32609  1.0000
  C   C69       1.0  0.42654  0.53251  0.32663  1.0000
  C   C70       1.0  0.41162  0.53385  0.24765  1.0000
  C   C71       1.0  0.36677  0.52526  0.33571  1.0000
  C   C72       1.0  0.38211  0.53026  0.25213  1.0000
  H   H19       1.0  0.37230  0.53204  0.19403  1.0000
  H   H20       1.0  0.42264  0.53864  0.18682  1.0000
  H   H21       1.0  0.42086  0.47554  0.32392  1.0000
  H   H22       1.0  0.44989  0.44646  0.32338  1.0000
  H   H23       1.0  0.51223  0.53778  0.32352  1.0000
  H   H24       1.0  0.55901  0.58441  0.32348  1.0000
  H   H25       1.0  0.45240  0.59451  0.32795  1.0000
  H   H26       1.0  0.50259  0.64456  0.32655  1.0000
  H   H27       1.0  0.56532  0.67529  0.18229  1.0000
  H   H28       1.0  0.57142  0.72558  0.18397  1.0000
  H   H29       1.0  0.62135  0.67574  0.32359  1.0000
  H   H30       1.0  0.65038  0.64666  0.32407  1.0000
  H   H31       1.0  0.56866  0.47765  0.32653  1.0000
  H   H32       1.0  0.61885  0.52770  0.32799  1.0000
  H   H33       1.0  0.64872  0.58343  0.18691  1.0000
  H   H34       1.0  0.69916  0.59028  0.19416  1.0000
  H   H35       1.0  0.50628  0.44691  0.18215  1.0000
  H   H36       1.0  0.50041  0.39671  0.18387  1.0000
  N   N13       1.0  0.73199  0.59980  0.34664  1.0000
  N   N14       1.0  0.57236  0.75678  0.32179  1.0000
  N   N15       1.0  0.33946  0.52295  0.34655  1.0000
  N   N16       1.0  0.49940  0.36564  0.32175  1.0000
  C   C73       1.0  0.61229  0.04571  0.32342  1.0000
  C   C74       1.0  0.62812  0.07733  0.32310  1.0000
  C   C75       1.0  0.60689  0.08740  0.32285  1.0000
  N   N17       1.0  0.57909  0.06156  0.32299  1.0000
  C   C76       1.0  0.58100  0.03569  0.32350  1.0000
  C   C77       1.0  0.55722  0.00453  0.32382  1.0000
  C   C78       1.0  0.52546  0.99471  0.32376  1.0000
  N   N18       1.0  0.51196  0.01206  0.32255  1.0000
  C   C79       1.0  0.48109  0.99485  0.32332  1.0000
  C   C80       1.0  0.47439  0.96444  0.32495  1.0000
  C   C81       1.0  0.50165  0.96436  0.32564  1.0000
  C   C82       1.0  0.45927  0.00481  0.32298  1.0000
  C   C83       1.0  0.46668  0.03597  0.32290  1.0000
  N   N19       1.0  0.49448  0.06180  0.32302  1.0000
  C   C84       1.0  0.49257  0.08767  0.32351  1.0000
  C   C85       1.0  0.46128  0.07765  0.32347  1.0000
  C   C86       1.0  0.44545  0.04603  0.32318  1.0000
  C   C87       1.0  0.51635  0.11883  0.32382  1.0000
  C   C88       1.0  0.54811  0.12865  0.32375  1.0000
  N   N20       1.0  0.56161  0.11130  0.32253  1.0000
  C   C89       1.0  0.59247  0.12852  0.32328  1.0000
  C   C90       1.0  0.59917  0.15892  0.32492  1.0000
  C   C91       1.0  0.57192  0.15900  0.32560  1.0000
  C   C92       1.0  0.61431  0.11856  0.32291  1.0000
  C   C93       1.0  0.64580  0.14185  0.32401  1.0000
  C   C94       1.0  0.70534  0.19492  0.32619  1.0000
  C   C95       1.0  0.69084  0.18123  0.24401  1.0000
  C   C96       1.0  0.66147  0.15504  0.24271  1.0000
  C   C97       1.0  0.50820  0.14218  0.32612  1.0000
  C   C98       1.0  0.50063  0.19451  0.33510  1.0000
  C   C99       1.0  0.50584  0.18428  0.25158  1.0000
  C   C100      1.0  0.50960  0.15847  0.24715  1.0000
  C   C101      1.0  0.42777  0.98153  0.32415  1.0000
  C   C102      1.0  0.41209  0.96838  0.24285  1.0000
  C   C103      1.0  0.38265  0.94231  0.24411  1.0000
  C   C104      1.0  0.36809  0.92865  0.32628  1.0000
  C   C105      1.0  0.56535  0.98117  0.32611  1.0000
  C   C106      1.0  0.56398  0.96482  0.24713  1.0000
  C   C107      1.0  0.57262  0.92867  0.33511  1.0000
  C   C108      1.0  0.56760  0.93893  0.25156  1.0000
  H   H37       1.0  0.56583  0.92729  0.19345  1.0000
  H   H38       1.0  0.55920  0.97101  0.18630  1.0000
  H   H39       1.0  0.62232  0.03245  0.32356  1.0000
  H   H40       1.0  0.65142  0.09057  0.32315  1.0000
  H   H41       1.0  0.56010  0.06160  0.32309  1.0000
  H   H42       1.0  0.51347  0.06176  0.32309  1.0000
  H   H43       1.0  0.50335  0.94505  0.32752  1.0000
  H   H44       1.0  0.45331  0.94519  0.32622  1.0000
  H   H45       1.0  0.42248  0.97701  0.18215  1.0000
  H   H46       1.0  0.37220  0.93281  0.18412  1.0000
  H   H47       1.0  0.42215  0.03280  0.32324  1.0000
  H   H48       1.0  0.45124  0.09091  0.32359  1.0000
  H   H49       1.0  0.62026  0.17817  0.32611  1.0000
  H   H50       1.0  0.57021  0.17832  0.32745  1.0000
  H   H51       1.0  0.51450  0.15231  0.18634  1.0000
  H   H52       1.0  0.50764  0.19590  0.19349  1.0000
  H   H53       1.0  0.65109  0.14641  0.18202  1.0000
  H   H54       1.0  0.70128  0.19075  0.18403  1.0000
  N   N21       1.0  0.49808  0.21937  0.34587  1.0000
  N   N22       1.0  0.34109  0.90275  0.32214  1.0000
  N   N23       1.0  0.57497  0.90370  0.34590  1.0000
  N   N24       1.0  0.73225  0.22093  0.32208  1.0000
  C   C109      1.0  0.29281  0.52242  0.32553  1.0000
  N   N25       1.0  0.27825  0.53207  0.26841  1.0000
  N   N26       1.0  0.25214  0.53064  0.28591  1.0000
  C   C110      1.0  0.32046  0.52565  0.29501  1.0000
  H   H55       1.0  0.32603  0.53102  0.23063  1.0000
  C   C111      1.0  0.57544  0.85753  0.32482  1.0000
  N   N27       1.0  0.56560  0.83319  0.26791  1.0000
  N   N28       1.0  0.56706  0.80854  0.28533  1.0000
  C   C112      1.0  0.57215  0.88190  0.29439  1.0000
  H   H56       1.0  0.56661  0.88195  0.23014  1.0000
  C   C113      1.0  0.24036  0.80507  0.32570  1.0000
  N   N29       1.0  0.26467  0.81951  0.26867  1.0000
  N   N30       1.0  0.28932  0.84565  0.28595  1.0000
  C   C114      1.0  0.21598  0.77738  0.29539  1.0000
  H   H57       1.0  0.21587  0.77172  0.23111  1.0000
  C   C115      1.0  0.77882  0.60064  0.32564  1.0000
  N   N31       1.0  0.79348  0.59098  0.26870  1.0000
  N   N32       1.0  0.81971  0.59269  0.28613  1.0000
  C   C116      1.0  0.75107  0.59711  0.29516  1.0000
  H   H58       1.0  0.74550  0.59153  0.23089  1.0000
  C   C117      1.0  0.49722  0.26533  0.32479  1.0000
  N   N33       1.0  0.50689  0.28959  0.26784  1.0000
  N   N34       1.0  0.50517  0.31412  0.28523  1.0000
  C   C118      1.0  0.50077  0.24108  0.29436  1.0000
  H   H59       1.0  0.50635  0.24101  0.23010  1.0000
  C   C119      1.0  0.83257  0.31906  0.32552  1.0000
  N   N35       1.0  0.80839  0.30434  0.26827  1.0000
  N   N36       1.0  0.78384  0.27812  0.28561  1.0000
  C   C120      1.0  0.85685  0.34680  0.29515  1.0000
  H   H60       1.0  0.85699  0.35235  0.23082  1.0000
  C   C121      1.0  0.94259  0.59227  0.40749  1.0000
  C   C122      1.0  0.91643  0.59546  0.40836  1.0000
  C   C123      1.0  0.94582  0.43768  0.41053  1.0000
  C   C124      1.0  0.92008  0.40807  0.41458  1.0000
  C   C125      1.0  0.15590  0.52905  0.40842  1.0000
  C   C126      1.0  0.12984  0.53240  0.40758  1.0000
  C   C127      1.0  0.12662  0.68687  0.41063  1.0000
  C   C128      1.0  0.15242  0.71644  0.41471  1.0000
  H   H61       1.0  0.15946  0.72681  0.47626  1.0000
  H   H62       1.0  0.11576  0.67634  0.46923  1.0000
  H   H63       1.0  0.12154  0.53542  0.46737  1.0000
  H   H64       1.0  0.16571  0.52968  0.46911  1.0000
  H   H65       1.0  0.95667  0.44823  0.46910  1.0000
  H   H66       1.0  0.91309  0.39768  0.47608  1.0000
  H   H67       1.0  0.90659  0.59487  0.46907  1.0000
  H   H68       1.0  0.95092  0.58940  0.46729  1.0000
  C   C129      1.0  0.50562  0.43756  0.40658  1.0000
  C   C130      1.0  0.50247  0.40823  0.40742  1.0000
  C   C131      1.0  0.66018  0.59540  0.40994  1.0000
  C   C132      1.0  0.68978  0.59928  0.41416  1.0000
  C   C133      1.0  0.56883  0.71408  0.40751  1.0000
  C   C134      1.0  0.56550  0.68468  0.40670  1.0000
  C   C135      1.0  0.41105  0.52699  0.40991  1.0000
  C   C136      1.0  0.38149  0.52323  0.41410  1.0000
  H   H69       1.0  0.37113  0.51996  0.47568  1.0000
  H   H70       1.0  0.42159  0.52671  0.46846  1.0000
  H   H71       1.0  0.56247  0.67342  0.46649  1.0000
  H   H72       1.0  0.56820  0.72334  0.46819  1.0000
  H   H73       1.0  0.64958  0.59572  0.46846  1.0000
  H   H74       1.0  0.70013  0.60272  0.47573  1.0000
  H   H75       1.0  0.50301  0.39901  0.46814  1.0000
  H   H76       1.0  0.50852  0.44883  0.46637  1.0000
  C   C137      1.0  0.66027  0.15529  0.40648  1.0000
  C   C138      1.0  0.68961  0.18145  0.40751  1.0000
  C   C139      1.0  0.50250  0.15204  0.40935  1.0000
  C   C140      1.0  0.49857  0.17774  0.41349  1.0000
  C   C141      1.0  0.38384  0.94205  0.40760  1.0000
  C   C142      1.0  0.41326  0.96810  0.40658  1.0000
  C   C143      1.0  0.57091  0.97130  0.40936  1.0000
  C   C144      1.0  0.57464  0.94548  0.41352  1.0000
  H   H77       1.0  0.57797  0.93849  0.47508  1.0000
  H   H78       1.0  0.57119  0.98218  0.46792  1.0000
  H   H79       1.0  0.42454  0.97642  0.46632  1.0000
  H   H80       1.0  0.37464  0.93224  0.46834  1.0000
  H   H81       1.0  0.50212  0.14117  0.46789  1.0000
  H   H82       1.0  0.49512  0.18472  0.47503  1.0000
  H   H83       1.0  0.69876  0.19127  0.46828  1.0000
  H   H84       1.0  0.64897  0.14695  0.46622  1.0000
  C   C145      1.0  0.23654  0.51907  0.36407  1.0000
  C   C146      1.0  0.24982  0.50841  0.42765  1.0000
  C   C147      1.0  0.27810  0.50991  0.40943  1.0000
  H   H85       1.0  0.23880  0.49939  0.48748  1.0000
  C   C148      1.0  0.29027  0.49879  0.47289  1.0000
  C   C149      1.0  0.30303  0.51584  0.55536  1.0000
  H   H86       1.0  0.31806  0.54012  0.54088  1.0000
  H   H87       1.0  0.31658  0.50750  0.58959  1.0000
  H   H88       1.0  0.28486  0.51335  0.60083  1.0000
  O   O1        1.0  0.27670  0.47090  0.47978  1.0000
  C   C150      1.0  0.20909  0.51822  0.38167  1.0000
  H   H89       1.0  0.19985  0.51159  0.44254  1.0000
  C   C151      1.0  0.57886  0.80467  0.36317  1.0000
  C   C152      1.0  0.58973  0.82877  0.42649  1.0000
  C   C153      1.0  0.58819  0.85552  0.40838  1.0000
  H   H90       1.0  0.59891  0.82689  0.48610  1.0000
  C   C154      1.0  0.59953  0.87899  0.47161  1.0000
  C   C155      1.0  0.58179  0.87472  0.55271  1.0000
  H   H91       1.0  0.55776  0.86622  0.53633  1.0000
  H   H92       1.0  0.59037  0.89652  0.58793  1.0000
  H   H93       1.0  0.58331  0.85851  0.59812  1.0000
  O   O2        1.0  0.62735  0.89271  0.48045  1.0000
  C   C156      1.0  0.57973  0.77811  0.38069  1.0000
  H   H94       1.0  0.58648  0.77559  0.44144  1.0000
  C   C157      1.0  0.29323  0.86140  0.36379  1.0000
  C   C158      1.0  0.26918  0.84825  0.42725  1.0000
  C   C159      1.0  0.24242  0.81993  0.40928  1.0000
  H   H95       1.0  0.27110  0.85938  0.48685  1.0000
  C   C160      1.0  0.21899  0.80788  0.47263  1.0000
  C   C161      1.0  0.22332  0.79453  0.55374  1.0000
  H   H96       1.0  0.23185  0.77901  0.53735  1.0000
  H   H97       1.0  0.20155  0.78134  0.58907  1.0000
  H   H98       1.0  0.23955  0.81233  0.59905  1.0000
  O   O3        1.0  0.20525  0.82196  0.48151  1.0000
  C   C162      1.0  0.31981  0.88886  0.38118  1.0000
  H   H99       1.0  0.32237  0.89819  0.44193  1.0000
  C   C163      1.0  0.83533  0.60459  0.36402  1.0000
  C   C164      1.0  0.82195  0.61530  0.42738  1.0000
  C   C165      1.0  0.79354  0.61349  0.40925  1.0000
  H   H100      1.0  0.83297  0.62455  0.48703  1.0000
  C   C166      1.0  0.78127  0.62466  0.47244  1.0000
  C   C167      1.0  0.76803  0.60716  0.55404  1.0000
  H   H101      1.0  0.75284  0.58301  0.53822  1.0000
  H   H102      1.0  0.75452  0.61551  0.58876  1.0000
  H   H103      1.0  0.78592  0.60916  0.59967  1.0000
  O   O4        1.0  0.79499  0.65248  0.48189  1.0000
  C   C168      1.0  0.86289  0.60571  0.38158  1.0000
  H   H104      1.0  0.87213  0.61252  0.44236  1.0000
  C   C169      1.0  0.49326  0.31792  0.36311  1.0000
  C   C170      1.0  0.48255  0.29390  0.42648  1.0000
  C   C171      1.0  0.48436  0.26728  0.40838  1.0000
  H   H105      1.0  0.47330  0.29574  0.48611  1.0000
  C   C172      1.0  0.47319  0.24392  0.47160  1.0000
  C   C173      1.0  0.49071  0.24827  0.55318  1.0000
  H   H106      1.0  0.51486  0.25720  0.53735  1.0000
  H   H107      1.0  0.48237  0.22645  0.58793  1.0000
  H   H108      1.0  0.48871  0.26421  0.59881  1.0000
  O   O5        1.0  0.44538  0.22983  0.48107  1.0000
  C   C174      1.0  0.49214  0.34438  0.38064  1.0000
  H   H109      1.0  0.48532  0.34687  0.44141  1.0000
  C   C175      1.0  0.77991  0.26257  0.36372  1.0000
  C   C176      1.0  0.80383  0.27602  0.42741  1.0000
  C   C177      1.0  0.83047  0.30441  0.40937  1.0000
  H   H110      1.0  0.80190  0.26503  0.48721  1.0000
  C   C178      1.0  0.85374  0.31675  0.47295  1.0000
  C   C179      1.0  0.84929  0.32941  0.55544  1.0000
  H   H111      1.0  0.83986  0.34428  0.54096  1.0000
  H   H112      1.0  0.87115  0.34312  0.58977  1.0000
  H   H113      1.0  0.83371  0.31119  0.60080  1.0000
  O   O6        1.0  0.86826  0.30337  0.47985  1.0000
  C   C180      1.0  0.75344  0.23501  0.38115  1.0000
  H   H114      1.0  0.75088  0.22580  0.44200  1.0000
