data_image0
_chemical_formula_structural       C3NC3NC5NC5NC20H18N4C3NC3NC5NC5NC20H18N4C3NC3NC5NC5NC20H18N4C2NHCHC2NHCHC2NHCHC2NHCHC2NHCHC2NHCHC8H8C8H8C8H8C2NCH3CHC2NCH3CHC2NCH3CHC2NCH3CHC2NCH3CHC2NCH3CH
_chemical_formula_sum              "C174 N36 H114"
_cell_length_a       50.4965
_cell_length_b       50.4965
_cell_length_c       14.8428
_cell_angle_alpha    90.0974
_cell_angle_beta     89.9026
_cell_angle_gamma    120

_space_group_name_H-M_alt    "P 1"
_space_group_IT_number       1

loop_
  _space_group_symop_operation_xyz
  'x, y, z'

loop_
  _atom_site_type_symbol
  _atom_site_label
  _atom_site_symmetry_multiplicity
  _atom_site_fract_x
  _atom_site_fract_y
  _atom_site_fract_z
  _atom_site_occupancy
  C   C1        1.0  0.05191  0.65359  0.32633  1.0000
  C   C2        1.0  0.02029  0.63782  0.32582  1.0000
  C   C3        1.0  0.01022  0.60655  0.32187  1.0000
  N   N1        1.0  0.03604  0.60457  0.31998  1.0000
  C   C4        1.0  0.06190  0.63232  0.32273  1.0000
  C   C5        1.0  0.09303  0.63965  0.32181  1.0000
  C   C6        1.0  0.10289  0.61775  0.31984  1.0000
  N   N2        1.0  0.08558  0.58690  0.32057  1.0000
  C   C7        1.0  0.10282  0.57328  0.31906  1.0000
  C   C8        1.0  0.13320  0.59701  0.31694  1.0000
  C   C9        1.0  0.13325  0.62433  0.31776  1.0000
  C   C10       1.0  0.09287  0.54150  0.32034  1.0000
  C   C11       1.0  0.06171  0.51776  0.32194  1.0000
  N   N3        1.0  0.03590  0.51974  0.31999  1.0000
  C   C12       1.0  0.01003  0.49199  0.32284  1.0000
  C   C13       1.0  0.02002  0.47073  0.32664  1.0000
  C   C14       1.0  0.05164  0.48649  0.32610  1.0000
  C   C15       1.0  0.97890  0.48466  0.32185  1.0000
  C   C16       1.0  0.96904  0.50655  0.31980  1.0000
  N   N4        1.0  0.98636  0.53741  0.32053  1.0000
  C   C17       1.0  0.96912  0.55102  0.31905  1.0000
  C   C18       1.0  0.93873  0.52729  0.31701  1.0000
  C   C19       1.0  0.93868  0.49997  0.31781  1.0000
  C   C20       1.0  0.97906  0.58281  0.32038  1.0000
  C   C21       1.0  0.95580  0.59103  0.32205  1.0000
  C   C22       1.0  0.90305  0.59803  0.32300  1.0000
  C   C23       1.0  0.91825  0.59941  0.24167  1.0000
  C   C24       1.0  0.94422  0.59587  0.24095  1.0000
  C   C25       1.0  0.95558  0.45321  0.32499  1.0000
  C   C26       1.0  0.90289  0.39360  0.33201  1.0000
  C   C27       1.0  0.91564  0.40766  0.24834  1.0000
  C   C28       1.0  0.94164  0.43712  0.24487  1.0000
  C   C29       1.0  0.11612  0.53326  0.32205  1.0000
  C   C30       1.0  0.12757  0.52811  0.24098  1.0000
  C   C31       1.0  0.15347  0.52445  0.24167  1.0000
  C   C32       1.0  0.16865  0.52589  0.32295  1.0000
  C   C33       1.0  0.11636  0.67110  0.32486  1.0000
  C   C34       1.0  0.13040  0.68710  0.24472  1.0000
  C   C35       1.0  0.16921  0.73060  0.33185  1.0000
  C   C36       1.0  0.15647  0.71651  0.24818  1.0000
  H   H1        1.0  0.16676  0.72694  0.18904  1.0000
  H   H2        1.0  0.12252  0.67690  0.18335  1.0000
  H   H3        1.0  0.06518  0.67687  0.32897  1.0000
  H   H4        1.0  0.00706  0.64789  0.32819  1.0000
  H   H5        1.0  0.03601  0.58558  0.31601  1.0000
  H   H6        1.0  0.03592  0.53872  0.31557  1.0000
  H   H7        1.0  0.15256  0.64539  0.31688  1.0000
  H   H8        1.0  0.15247  0.59519  0.31543  1.0000
  H   H9        1.0  0.11788  0.52822  0.18055  1.0000
  H   H10       1.0  0.16175  0.52161  0.18159  1.0000
  H   H11       1.0  0.06486  0.47643  0.32858  1.0000
  H   H12       1.0  0.00675  0.44745  0.32940  1.0000
  H   H13       1.0  0.91946  0.52911  0.31565  1.0000
  H   H14       1.0  0.91937  0.47891  0.31703  1.0000
  H   H15       1.0  0.94957  0.44727  0.18347  1.0000
  H   H16       1.0  0.90548  0.39712  0.18918  1.0000
  H   H17       1.0  0.95392  0.59568  0.18050  1.0000
  H   H18       1.0  0.90988  0.60200  0.18158  1.0000
  N   N5        1.0  0.87718  0.36680  0.34111  1.0000
  N   N6        1.0  0.19426  0.52433  0.31710  1.0000
  N   N7        1.0  0.19506  0.75728  0.34096  1.0000
  N   N8        1.0  0.87732  0.59938  0.31720  1.0000
  C   C37       1.0  0.44392  0.48541  0.32549  1.0000
  C   C38       1.0  0.45969  0.46956  0.32491  1.0000
  C   C39       1.0  0.49096  0.49076  0.32094  1.0000
  N   N9        1.0  0.49294  0.51856  0.31907  1.0000
  C   C40       1.0  0.46518  0.51666  0.32189  1.0000
  C   C41       1.0  0.45784  0.54046  0.32100  1.0000
  C   C42       1.0  0.47974  0.57222  0.31901  1.0000
  N   N10       1.0  0.51059  0.58576  0.31968  1.0000
  C   C43       1.0  0.52421  0.61662  0.31821  1.0000
  C   C44       1.0  0.50048  0.62327  0.31615  1.0000
  C   C45       1.0  0.47315  0.59600  0.31699  1.0000
  C   C46       1.0  0.55599  0.63846  0.31949  1.0000
  C   C47       1.0  0.57973  0.63105  0.32098  1.0000
  N   N11       1.0  0.57776  0.60325  0.31902  1.0000
  C   C48       1.0  0.60551  0.60515  0.32189  1.0000
  C   C49       1.0  0.62677  0.63641  0.32560  1.0000
  C   C50       1.0  0.61100  0.65225  0.32505  1.0000
  C   C51       1.0  0.61285  0.58135  0.32095  1.0000
  C   C52       1.0  0.59096  0.54959  0.31894  1.0000
  N   N12       1.0  0.56010  0.53605  0.31963  1.0000
  C   C53       1.0  0.54649  0.50519  0.31817  1.0000
  C   C54       1.0  0.57023  0.49854  0.31616  1.0000
  C   C55       1.0  0.59755  0.52582  0.31695  1.0000
  C   C56       1.0  0.51471  0.48335  0.31941  1.0000
  C   C57       1.0  0.50649  0.45186  0.32110  1.0000
  C   C58       1.0  0.49946  0.39211  0.32207  1.0000
  C   C59       1.0  0.49810  0.40586  0.24073  1.0000
  C   C60       1.0  0.50162  0.43536  0.24000  1.0000
  C   C61       1.0  0.64430  0.58949  0.32417  1.0000
  C   C62       1.0  0.70392  0.59644  0.33152  1.0000
  C   C63       1.0  0.68988  0.59501  0.24778  1.0000
  C   C64       1.0  0.66042  0.59154  0.24414  1.0000
  C   C65       1.0  0.56422  0.66996  0.32117  1.0000
  C   C66       1.0  0.56937  0.68646  0.24009  1.0000
  C   C67       1.0  0.57304  0.71603  0.24076  1.0000
  C   C68       1.0  0.57157  0.72984  0.32202  1.0000
  C   C69       1.0  0.42639  0.53234  0.32416  1.0000
  C   C70       1.0  0.41037  0.53031  0.24410  1.0000
  C   C71       1.0  0.36691  0.52571  0.33143  1.0000
  C   C72       1.0  0.38098  0.52703  0.24770  1.0000
  H   H19       1.0  0.37052  0.52679  0.18860  1.0000
  H   H20       1.0  0.42056  0.53260  0.18268  1.0000
  H   H21       1.0  0.42063  0.47539  0.32817  1.0000
  H   H22       1.0  0.44963  0.44627  0.32730  1.0000
  H   H23       1.0  0.51192  0.53752  0.31507  1.0000
  H   H24       1.0  0.55877  0.58429  0.31492  1.0000
  H   H25       1.0  0.45209  0.59424  0.31621  1.0000
  H   H26       1.0  0.50229  0.64435  0.31474  1.0000
  H   H27       1.0  0.56926  0.67659  0.17966  1.0000
  H   H28       1.0  0.57586  0.72708  0.18067  1.0000
  H   H29       1.0  0.62106  0.67554  0.32753  1.0000
  H   H30       1.0  0.65005  0.64642  0.32834  1.0000
  H   H31       1.0  0.56842  0.47746  0.31470  1.0000
  H   H32       1.0  0.61861  0.52758  0.31615  1.0000
  H   H33       1.0  0.65030  0.58924  0.18270  1.0000
  H   H34       1.0  0.70044  0.59530  0.18868  1.0000
  H   H35       1.0  0.50181  0.44520  0.17955  1.0000
  H   H36       1.0  0.49545  0.39481  0.18065  1.0000
  N   N13       1.0  0.73070  0.59750  0.34080  1.0000
  N   N14       1.0  0.57314  0.75701  0.31617  1.0000
  N   N15       1.0  0.34022  0.52486  0.34067  1.0000
  N   N16       1.0  0.49811  0.36503  0.31627  1.0000
  C   C73       1.0  0.61209  0.04561  0.32507  1.0000
  C   C74       1.0  0.62794  0.07723  0.32459  1.0000
  C   C75       1.0  0.60674  0.08730  0.32056  1.0000
  N   N17       1.0  0.57894  0.06148  0.31856  1.0000
  C   C76       1.0  0.58083  0.03561  0.32134  1.0000
  C   C77       1.0  0.55704  0.00448  0.32030  1.0000
  C   C78       1.0  0.52527  0.99462  0.31834  1.0000
  N   N18       1.0  0.51173  0.01193  0.31912  1.0000
  C   C79       1.0  0.48088  0.99469  0.31770  1.0000
  C   C80       1.0  0.47422  0.96430  0.31562  1.0000
  C   C81       1.0  0.50149  0.96426  0.31635  1.0000
  C   C82       1.0  0.45903  0.00463  0.31907  1.0000
  C   C83       1.0  0.46645  0.03579  0.32057  1.0000
  N   N19       1.0  0.49425  0.06161  0.31855  1.0000
  C   C84       1.0  0.49236  0.08747  0.32138  1.0000
  C   C85       1.0  0.46110  0.07748  0.32512  1.0000
  C   C86       1.0  0.44525  0.04586  0.32464  1.0000
  C   C87       1.0  0.51615  0.11860  0.32042  1.0000
  C   C88       1.0  0.54791  0.12847  0.31848  1.0000
  N   N20       1.0  0.56145  0.11115  0.31920  1.0000
  C   C89       1.0  0.59231  0.12840  0.31777  1.0000
  C   C90       1.0  0.59897  0.15878  0.31571  1.0000
  C   C91       1.0  0.57169  0.15883  0.31645  1.0000
  C   C92       1.0  0.61415  0.11846  0.31908  1.0000
  C   C93       1.0  0.64564  0.14172  0.32088  1.0000
  C   C94       1.0  0.70538  0.19447  0.32220  1.0000
  C   C95       1.0  0.69169  0.17930  0.24078  1.0000
  C   C96       1.0  0.66219  0.15331  0.23988  1.0000
  C   C97       1.0  0.50801  0.14192  0.32358  1.0000
  C   C98       1.0  0.50106  0.19458  0.33079  1.0000
  C   C99       1.0  0.50249  0.18188  0.24707  1.0000
  C   C100      1.0  0.50595  0.15588  0.24350  1.0000
  C   C101      1.0  0.42754  0.98138  0.32089  1.0000
  C   C102      1.0  0.41099  0.96987  0.23992  1.0000
  C   C103      1.0  0.38142  0.94399  0.24079  1.0000
  C   C104      1.0  0.36766  0.92883  0.32215  1.0000
  C   C105      1.0  0.56515  0.98115  0.32342  1.0000
  C   C106      1.0  0.56714  0.96706  0.24334  1.0000
  C   C107      1.0  0.57178  0.92830  0.33060  1.0000
  C   C108      1.0  0.57045  0.94098  0.24689  1.0000
  H   H37       1.0  0.57069  0.93069  0.18777  1.0000
  H   H38       1.0  0.56487  0.97492  0.18193  1.0000
  H   H39       1.0  0.62210  0.03234  0.32774  1.0000
  H   H40       1.0  0.65123  0.09046  0.32708  1.0000
  H   H41       1.0  0.55998  0.06150  0.31437  1.0000
  H   H42       1.0  0.51321  0.06158  0.31444  1.0000
  H   H43       1.0  0.50325  0.94495  0.31551  1.0000
  H   H44       1.0  0.45314  0.94503  0.31421  1.0000
  H   H45       1.0  0.42079  0.97957  0.17945  1.0000
  H   H46       1.0  0.37032  0.93567  0.18078  1.0000
  H   H47       1.0  0.42196  0.03264  0.32715  1.0000
  H   H48       1.0  0.45109  0.09075  0.32786  1.0000
  H   H49       1.0  0.62005  0.17805  0.31426  1.0000
  H   H50       1.0  0.56993  0.17813  0.31560  1.0000
  H   H51       1.0  0.50830  0.14801  0.18208  1.0000
  H   H52       1.0  0.50223  0.19209  0.18796  1.0000
  H   H53       1.0  0.65240  0.14363  0.17937  1.0000
  H   H54       1.0  0.70278  0.18767  0.18076  1.0000
  N   N21       1.0  0.49997  0.22030  0.34000  1.0000
  N   N22       1.0  0.34049  0.90321  0.31648  1.0000
  N   N23       1.0  0.57264  0.90247  0.33981  1.0000
  N   N24       1.0  0.73247  0.22018  0.31658  1.0000
  C   C109      1.0  0.29196  0.52055  0.31406  1.0000
  C   C110      1.0  0.27351  0.52302  0.24635  1.0000
  N   N25       1.0  0.24768  0.52369  0.26733  1.0000
  H   H55       1.0  0.27924  0.52439  0.17969  1.0000
  C   C111      1.0  0.31797  0.51933  0.28738  1.0000
  H   H56       1.0  0.31954  0.51429  0.22352  1.0000
  C   C112      1.0  0.57694  0.85850  0.31315  1.0000
  C   C113      1.0  0.57446  0.83751  0.24545  1.0000
  N   N26       1.0  0.57379  0.81103  0.26640  1.0000
  H   H57       1.0  0.57308  0.84180  0.17878  1.0000
  C   C114      1.0  0.57813  0.88568  0.28648  1.0000
  H   H58       1.0  0.58313  0.89221  0.22259  1.0000
  C   C115      1.0  0.23898  0.80554  0.31410  1.0000
  C   C116      1.0  0.25995  0.82394  0.24627  1.0000
  N   N27       1.0  0.28645  0.84977  0.26707  1.0000
  H   H59       1.0  0.25561  0.81817  0.17964  1.0000
  C   C117      1.0  0.21177  0.77953  0.28760  1.0000
  H   H60       1.0  0.20513  0.77798  0.22383  1.0000
  C   C118      1.0  0.77918  0.60231  0.31422  1.0000
  C   C119      1.0  0.79773  0.59989  0.24652  1.0000
  N   N28       1.0  0.82367  0.59946  0.26747  1.0000
  H   H61       1.0  0.79199  0.59837  0.17986  1.0000
  C   C120      1.0  0.75308  0.60329  0.28757  1.0000
  H   H62       1.0  0.75157  0.60841  0.22383  1.0000
  C   C121      1.0  0.49518  0.26395  0.31335  1.0000
  C   C122      1.0  0.49758  0.28485  0.24563  1.0000
  N   N29       1.0  0.49800  0.31123  0.26657  1.0000
  H   H63       1.0  0.49909  0.28055  0.17898  1.0000
  C   C123      1.0  0.49422  0.23685  0.28672  1.0000
  H   H64       1.0  0.48915  0.23018  0.22294  1.0000
  C   C124      1.0  0.83356  0.31832  0.31424  1.0000
  C   C125      1.0  0.81269  0.29980  0.24641  1.0000
  N   N30       1.0  0.78629  0.27385  0.26720  1.0000
  H   H65       1.0  0.81701  0.30558  0.17979  1.0000
  C   C126      1.0  0.86067  0.34444  0.28776  1.0000
  H   H66       1.0  0.86738  0.34600  0.22401  1.0000
  C   C127      1.0  0.94102  0.59018  0.40381  1.0000
  C   C128      1.0  0.91503  0.59364  0.40427  1.0000
  C   C129      1.0  0.94314  0.43905  0.40857  1.0000
  C   C130      1.0  0.91713  0.40963  0.41183  1.0000
  C   C131      1.0  0.15680  0.53062  0.40416  1.0000
  C   C132      1.0  0.13092  0.53426  0.40374  1.0000
  C   C133      1.0  0.12877  0.68531  0.40845  1.0000
  C   C134      1.0  0.15485  0.71467  0.41169  1.0000
  H   H67       1.0  0.16386  0.72401  0.47323  1.0000
  H   H68       1.0  0.11965  0.67385  0.46750  1.0000
  H   H69       1.0  0.12367  0.53887  0.46313  1.0000
  H   H70       1.0  0.16747  0.53255  0.46424  1.0000
  H   H71       1.0  0.95221  0.45054  0.46762  1.0000
  H   H72       1.0  0.90814  0.40029  0.47337  1.0000
  H   H73       1.0  0.90434  0.59174  0.46437  1.0000
  H   H74       1.0  0.94831  0.58571  0.46322  1.0000
  C   C135      1.0  0.50734  0.43803  0.40287  1.0000
  C   C136      1.0  0.50390  0.40859  0.40331  1.0000
  C   C137      1.0  0.65843  0.59132  0.40784  1.0000
  C   C138      1.0  0.68785  0.59474  0.41126  1.0000
  C   C139      1.0  0.56685  0.71335  0.40325  1.0000
  C   C140      1.0  0.56324  0.68384  0.40285  1.0000
  C   C141      1.0  0.41221  0.53059  0.40781  1.0000
  C   C142      1.0  0.38284  0.52730  0.41119  1.0000
  H   H75       1.0  0.37352  0.52701  0.47277  1.0000
  H   H76       1.0  0.42368  0.53296  0.46683  1.0000
  H   H77       1.0  0.55859  0.67203  0.46224  1.0000
  H   H78       1.0  0.56491  0.72215  0.46331  1.0000
  H   H79       1.0  0.64689  0.58892  0.46683  1.0000
  H   H80       1.0  0.69714  0.59512  0.47285  1.0000
  H   H81       1.0  0.50575  0.39984  0.46344  1.0000
  H   H82       1.0  0.51183  0.44986  0.46226  1.0000
  C   C143      1.0  0.65942  0.15647  0.40273  1.0000
  C   C144      1.0  0.68887  0.18246  0.40336  1.0000
  C   C145      1.0  0.50618  0.15431  0.40721  1.0000
  C   C146      1.0  0.50272  0.18029  0.41056  1.0000
  C   C147      1.0  0.38420  0.94073  0.40329  1.0000
  C   C148      1.0  0.41372  0.96661  0.40267  1.0000
  C   C149      1.0  0.56693  0.96881  0.40705  1.0000
  C   C150      1.0  0.57018  0.94271  0.41038  1.0000
  H   H83       1.0  0.57052  0.93376  0.47196  1.0000
  H   H84       1.0  0.56456  0.97796  0.46607  1.0000
  H   H85       1.0  0.42556  0.97388  0.46199  1.0000
  H   H86       1.0  0.37546  0.93006  0.46340  1.0000
  H   H87       1.0  0.50853  0.14521  0.46623  1.0000
  H   H88       1.0  0.50232  0.18927  0.47214  1.0000
  H   H89       1.0  0.69757  0.19311  0.46353  1.0000
  H   H90       1.0  0.64756  0.14916  0.46207  1.0000
  C   C151      1.0  0.28155  0.51882  0.40447  1.0000
  C   C152      1.0  0.23808  0.52195  0.35369  1.0000
  N   N31       1.0  0.25535  0.51960  0.41972  1.0000
  C   C153      1.0  0.29693  0.51580  0.48545  1.0000
  H   H91       1.0  0.29925  0.49550  0.47961  1.0000
  H   H92       1.0  0.28400  0.51357  0.54680  1.0000
  H   H93       1.0  0.31951  0.53602  0.49276  1.0000
  C   C154      1.0  0.21197  0.52278  0.37655  1.0000
  H   H94       1.0  0.20702  0.52231  0.44153  1.0000
  C   C155      1.0  0.57866  0.84989  0.40356  1.0000
  C   C156      1.0  0.57553  0.80326  0.35276  1.0000
  N   N32       1.0  0.57788  0.82293  0.41880  1.0000
  C   C157      1.0  0.58167  0.86838  0.48456  1.0000
  H   H95       1.0  0.60198  0.89098  0.47872  1.0000
  H   H96       1.0  0.58389  0.85773  0.54589  1.0000
  H   H97       1.0  0.56146  0.87074  0.49186  1.0000
  C   C158      1.0  0.57470  0.77634  0.37562  1.0000
  H   H98       1.0  0.57518  0.77193  0.44060  1.0000
  C   C159      1.0  0.24764  0.81600  0.40445  1.0000
  C   C160      1.0  0.29426  0.85942  0.35338  1.0000
  N   N33       1.0  0.27462  0.84220  0.41953  1.0000
  C   C161      1.0  0.22918  0.80067  0.48553  1.0000
  H   H99       1.0  0.20658  0.79836  0.47973  1.0000
  H   H100      1.0  0.23986  0.81363  0.54680  1.0000
  H   H101      1.0  0.22681  0.77809  0.49295  1.0000
  C   C162      1.0  0.32121  0.88553  0.37605  1.0000
  H   H102      1.0  0.32566  0.89051  0.44101  1.0000
  C   C163      1.0  0.78960  0.60424  0.40461  1.0000
  C   C164      1.0  0.83328  0.60141  0.35381  1.0000
  N   N34       1.0  0.81591  0.60370  0.41985  1.0000
  C   C165      1.0  0.77411  0.60726  0.48556  1.0000
  H   H103      1.0  0.77162  0.62745  0.47951  1.0000
  H   H104      1.0  0.78708  0.60970  0.54688  1.0000
  H   H105      1.0  0.75161  0.58695  0.49307  1.0000
  C   C166      1.0  0.85950  0.60083  0.37665  1.0000
  H   H106      1.0  0.86442  0.60138  0.44163  1.0000
  C   C167      1.0  0.49325  0.27254  0.40374  1.0000
  C   C168      1.0  0.49606  0.31898  0.35290  1.0000
  N   N35       1.0  0.49378  0.29940  0.41895  1.0000
  C   C169      1.0  0.49025  0.25413  0.48471  1.0000
  H   H107      1.0  0.47007  0.23144  0.47870  1.0000
  H   H108      1.0  0.48782  0.26472  0.54602  1.0000
  H   H109      1.0  0.51056  0.25196  0.49220  1.0000
  C   C170      1.0  0.49665  0.34581  0.37572  1.0000
  H   H110      1.0  0.49609  0.35025  0.44071  1.0000
  C   C171      1.0  0.82493  0.30784  0.40457  1.0000
  C   C172      1.0  0.77850  0.26420  0.35348  1.0000
  N   N36       1.0  0.79806  0.28153  0.41964  1.0000
  C   C173      1.0  0.84331  0.32329  0.48563  1.0000
  H   H111      1.0  0.86600  0.32580  0.47966  1.0000
  H   H112      1.0  0.83270  0.31029  0.54686  1.0000
  H   H113      1.0  0.84548  0.34578  0.49322  1.0000
  C   C174      1.0  0.75166  0.23797  0.37615  1.0000
  H   H114      1.0  0.74718  0.23301  0.44111  1.0000
