data_image0
_chemical_formula_structural       C2OHCHC2HC4HOHCH2C5OHC6O2H2C6O2H2CNCHCOCNC2H2CO2HNC2HCO2HCNC2H2CO2HCNC2H2CO2HCNC2H2CO2HC3H2C3H2C3H2C3H2C3H2C4HCNHCO2HC4HC3NHCO2HC5NHCO2HC4HC3NHCO2HC4HC3NHCO2HC4HC3NHCO2H
_chemical_formula_sum              "C108 O30 H54 N12"
_cell_length_a       31.5867
_cell_length_b       31.5866
_cell_length_c       14.836
_cell_angle_alpha    90
_cell_angle_beta     90
_cell_angle_gamma    120

_space_group_name_H-M_alt    "P 1"
_space_group_IT_number       1

loop_
  _space_group_symop_operation_xyz
  'x, y, z'

loop_
  _atom_site_type_symbol
  _atom_site_label
  _atom_site_symmetry_multiplicity
  _atom_site_fract_x
  _atom_site_fract_y
  _atom_site_fract_z
  _atom_site_occupancy
  C   C1        1.0  0.03516  0.51993  0.35291  1.0000
  C   C2        1.0  0.06235  0.57168  0.33578  1.0000
  O   O1        1.0  0.04093  0.59750  0.30716  1.0000
  H   H1        1.0  0.03308  0.58939  0.24305  1.0000
  C   C3        1.0  0.06389  0.49765  0.37289  1.0000
  H   H2        1.0  0.04753  0.46174  0.39093  1.0000
  C   C4        1.0  0.11405  0.59905  0.34352  1.0000
  C   C5        1.0  0.14695  0.47326  0.30670  1.0000
  H   H3        1.0  0.12191  0.46353  0.25555  1.0000
  C   C6        1.0  0.13990  0.57433  0.36009  1.0000
  C   C7        1.0  0.11558  0.52350  0.37305  1.0000
  C   C8        1.0  0.14468  0.50073  0.37988  1.0000
  C   C9        1.0  0.14222  0.65106  0.34354  1.0000
  H   H4        1.0  0.13069  0.65784  0.48152  1.0000
  O   O2        1.0  0.17573  0.39270  0.23225  1.0000
  H   H5        1.0  0.17339  0.37760  0.28394  1.0000
  C   C10       1.0  0.17380  0.67607  0.27101  1.0000
  H   H6        1.0  0.17112  0.65863  0.21139  1.0000
  H   H7        1.0  0.17744  0.59387  0.36243  1.0000
  C   C11       1.0  0.18146  0.51581  0.44618  1.0000
  C   C12       1.0  0.15147  0.67622  0.42643  1.0000
  C   C13       1.0  0.98143  0.49109  0.35299  1.0000
  C   C14       1.0  0.90254  0.41196  0.34388  1.0000
  C   C15       1.0  0.95423  0.43934  0.33591  1.0000
  O   O3        1.0  0.97564  0.41352  0.30724  1.0000
  H   H8        1.0  0.98343  0.42160  0.24310  1.0000
  C   C16       1.0  0.52272  0.49310  0.35294  1.0000
  C   C17       1.0  0.60186  0.49337  0.34366  1.0000
  C   C18       1.0  0.57446  0.51767  0.33578  1.0000
  C   C19       1.0  0.49387  0.51798  0.35300  1.0000
  C   C20       1.0  0.44212  0.49342  0.33590  1.0000
  C   C21       1.0  0.41472  0.51772  0.34384  1.0000
  O   O4        1.0  0.60027  0.56491  0.30719  1.0000
  O   O5        1.0  0.41631  0.44620  0.30722  1.0000
  H   H9        1.0  0.59218  0.56467  0.24307  1.0000
  H   H10       1.0  0.42439  0.44648  0.24308  1.0000
  C   C22       1.0  0.52072  0.03240  0.35300  1.0000
  C   C23       1.0  0.52048  0.11129  0.34391  1.0000
  C   C24       1.0  0.49617  0.05959  0.33593  1.0000
  C   C25       1.0  0.49583  0.97866  0.35292  1.0000
  C   C26       1.0  0.52039  0.95148  0.33580  1.0000
  C   C27       1.0  0.49606  0.89977  0.34353  1.0000
  O   O6        1.0  0.44894  0.03819  0.30726  1.0000
  O   O7        1.0  0.56763  0.97289  0.30718  1.0000
  H   H11       1.0  0.44922  0.03040  0.24312  1.0000
  H   H12       1.0  0.56738  0.98075  0.24307  1.0000
  C   C28       1.0  0.33774  0.50043  0.27110  1.0000
  N   N1        1.0  0.29206  0.49325  0.28350  1.0000
  C   C29       1.0  0.18557  0.46278  0.29858  1.0000
  H   H13       1.0  0.35519  0.51519  0.21149  1.0000
  C   C30       1.0  0.18706  0.43608  0.22525  1.0000
  O   O8        1.0  0.18418  0.44955  0.14938  1.0000
  C   C31       1.0  0.51332  0.84002  0.27104  1.0000
  N   N2        1.0  0.52049  0.80151  0.28346  1.0000
  C   C32       1.0  0.55098  0.72551  0.29858  1.0000
  C   C33       1.0  0.54050  0.67641  0.30675  1.0000
  H   H14       1.0  0.55021  0.66108  0.25561  1.0000
  H   H15       1.0  0.49856  0.84269  0.21142  1.0000
  C   C34       1.0  0.57766  0.75367  0.22521  1.0000
  O   O9        1.0  0.56416  0.73730  0.14936  1.0000
  O   O10       1.0  0.62103  0.78573  0.23216  1.0000
  H   H16       1.0  0.63615  0.79851  0.28383  1.0000
  N   N3        1.0  0.21230  0.72175  0.28342  1.0000
  C   C35       1.0  0.28828  0.82824  0.29852  1.0000
  C   C36       1.0  0.33737  0.86686  0.30666  1.0000
  H   H17       1.0  0.35270  0.89191  0.25551  1.0000
  C   C37       1.0  0.26011  0.82675  0.22517  1.0000
  O   O11       1.0  0.27647  0.82963  0.14930  1.0000
  O   O12       1.0  0.22805  0.83806  0.23214  1.0000
  H   H18       1.0  0.21527  0.84039  0.28381  1.0000
  C   C38       1.0  0.67890  0.51063  0.27108  1.0000
  N   N4        1.0  0.72456  0.51779  0.28348  1.0000
  C   C39       1.0  0.83104  0.54822  0.29861  1.0000
  C   C40       1.0  0.86965  0.53774  0.30679  1.0000
  H   H19       1.0  0.89469  0.54744  0.25565  1.0000
  H   H20       1.0  0.66147  0.49588  0.21144  1.0000
  C   C41       1.0  0.82956  0.57490  0.22522  1.0000
  O   O13       1.0  0.83243  0.56139  0.14938  1.0000
  O   O14       1.0  0.84088  0.61827  0.23215  1.0000
  H   H21       1.0  0.84322  0.63340  0.28381  1.0000
  C   C42       1.0  0.50322  0.17101  0.27126  1.0000
  N   N5        1.0  0.49605  0.20953  0.28359  1.0000
  C   C43       1.0  0.46556  0.28553  0.29860  1.0000
  C   C44       1.0  0.47604  0.33464  0.30667  1.0000
  H   H22       1.0  0.46631  0.34995  0.25553  1.0000
  H   H23       1.0  0.51797  0.16831  0.21165  1.0000
  C   C45       1.0  0.43883  0.25733  0.22531  1.0000
  O   O15       1.0  0.45228  0.27365  0.14941  1.0000
  O   O16       1.0  0.39547  0.22528  0.23236  1.0000
  H   H24       1.0  0.38038  0.21253  0.28407  1.0000
  C   C46       1.0  0.84279  0.33498  0.27125  1.0000
  N   N6        1.0  0.80427  0.28930  0.28361  1.0000
  C   C47       1.0  0.72825  0.18281  0.29863  1.0000
  C   C48       1.0  0.67915  0.14420  0.30679  1.0000
  H   H25       1.0  0.66381  0.11917  0.25563  1.0000
  H   H26       1.0  0.84546  0.35245  0.21166  1.0000
  C   C49       1.0  0.75640  0.18431  0.22523  1.0000
  O   O17       1.0  0.74002  0.18146  0.14939  1.0000
  O   O18       1.0  0.78845  0.17299  0.23214  1.0000
  H   H27       1.0  0.80124  0.17064  0.28379  1.0000
  C   C50       1.0  0.95271  0.51338  0.37305  1.0000
  C   C51       1.0  0.90102  0.48753  0.37329  1.0000
  C   C52       1.0  0.87670  0.43669  0.36040  1.0000
  H   H28       1.0  0.96908  0.54931  0.39094  1.0000
  H   H29       1.0  0.83916  0.41715  0.36277  1.0000
  C   C53       1.0  0.50044  0.44208  0.37289  1.0000
  C   C54       1.0  0.52631  0.41626  0.37306  1.0000
  C   C55       1.0  0.57715  0.44279  0.36014  1.0000
  H   H30       1.0  0.46453  0.42252  0.39091  1.0000
  H   H31       1.0  0.59669  0.42480  0.36247  1.0000
  C   C56       1.0  0.43945  0.56830  0.36032  1.0000
  C   C57       1.0  0.49029  0.59482  0.37320  1.0000
  C   C58       1.0  0.51614  0.56899  0.37304  1.0000
  H   H32       1.0  0.41991  0.58630  0.36266  1.0000
  H   H33       1.0  0.55206  0.58855  0.39096  1.0000
  C   C59       1.0  0.57173  0.06112  0.37306  1.0000
  C   C60       1.0  0.59757  0.11281  0.37331  1.0000
  C   C61       1.0  0.57105  0.13713  0.36043  1.0000
  H   H34       1.0  0.59129  0.04475  0.39095  1.0000
  H   H35       1.0  0.58906  0.17467  0.36281  1.0000
  C   C62       1.0  0.44549  0.87393  0.36009  1.0000
  C   C63       1.0  0.41898  0.89825  0.37305  1.0000
  C   C64       1.0  0.44481  0.94993  0.37290  1.0000
  H   H36       1.0  0.42749  0.83639  0.36243  1.0000
  H   H37       1.0  0.42527  0.96629  0.39093  1.0000
  C   C65       1.0  0.36271  0.49388  0.34369  1.0000
  C   C66       1.0  0.26644  0.47807  0.36207  1.0000
  C   C67       1.0  0.28950  0.46986  0.43729  1.0000
  C   C68       1.0  0.33758  0.47798  0.42661  1.0000
  H   H38       1.0  0.35596  0.47559  0.48171  1.0000
  C   C69       1.0  0.22212  0.47983  0.36684  1.0000
  N   N7        1.0  0.21811  0.50568  0.43642  1.0000
  H   H39       1.0  0.18325  0.53778  0.49843  1.0000
  C   C70       1.0  0.26808  0.45603  0.52157  1.0000
  O   O19       1.0  0.28157  0.48796  0.57930  1.0000
  O   O20       1.0  0.22671  0.41975  0.52678  1.0000
  H   H40       1.0  0.20882  0.41054  0.57660  1.0000
  C   C71       1.0  0.51990  0.87160  0.34355  1.0000
  C   C72       1.0  0.53570  0.79110  0.36202  1.0000
  C   C73       1.0  0.54394  0.82241  0.43719  1.0000
  C   C74       1.0  0.53582  0.86236  0.42645  1.0000
  H   H41       1.0  0.53823  0.88315  0.48153  1.0000
  C   C75       1.0  0.53394  0.74503  0.36684  1.0000
  C   C76       1.0  0.51305  0.64669  0.37997  1.0000
  C   C77       1.0  0.49799  0.66842  0.44626  1.0000
  N   N8        1.0  0.50812  0.71519  0.43646  1.0000
  H   H42       1.0  0.47604  0.64825  0.49855  1.0000
  C   C78       1.0  0.55779  0.81485  0.52147  1.0000
  O   O21       1.0  0.52587  0.79644  0.57924  1.0000
  O   O22       1.0  0.59407  0.80976  0.52668  1.0000
  H   H43       1.0  0.60330  0.80110  0.57651  1.0000
  C   C79       1.0  0.22271  0.74737  0.36198  1.0000
  C   C80       1.0  0.19142  0.72430  0.43716  1.0000
  C   C81       1.0  0.26878  0.79169  0.36679  1.0000
  C   C82       1.0  0.36712  0.86915  0.37986  1.0000
  C   C83       1.0  0.34540  0.83236  0.44616  1.0000
  N   N9        1.0  0.29863  0.79571  0.43638  1.0000
  H   H44       1.0  0.36558  0.83058  0.49843  1.0000
  C   C84       1.0  0.19898  0.74571  0.52145  1.0000
  O   O23       1.0  0.21741  0.73221  0.57920  1.0000
  O   O24       1.0  0.20406  0.78707  0.52666  1.0000
  H   H45       1.0  0.21273  0.80497  0.57649  1.0000
  C   C85       1.0  0.65385  0.51722  0.34353  1.0000
  C   C86       1.0  0.75018  0.53298  0.36205  1.0000
  C   C87       1.0  0.72710  0.54119  0.43722  1.0000
  C   C88       1.0  0.67903  0.53309  0.42644  1.0000
  H   H46       1.0  0.66066  0.53550  0.48154  1.0000
  C   C89       1.0  0.79449  0.53120  0.36687  1.0000
  C   C90       1.0  0.87192  0.51029  0.38003  1.0000
  C   C91       1.0  0.83514  0.49525  0.44632  1.0000
  N   N10       1.0  0.79850  0.50539  0.43650  1.0000
  H   H47       1.0  0.83335  0.47330  0.49862  1.0000
  C   C92       1.0  0.74849  0.55502  0.52152  1.0000
  O   O25       1.0  0.73497  0.52308  0.57926  1.0000
  O   O26       1.0  0.78986  0.59130  0.52677  1.0000
  H   H48       1.0  0.80774  0.60050  0.57662  1.0000
  C   C93       1.0  0.49664  0.13946  0.34383  1.0000
  C   C94       1.0  0.48086  0.21998  0.36213  1.0000
  C   C95       1.0  0.47263  0.18871  0.43736  1.0000
  C   C96       1.0  0.48074  0.14875  0.42670  1.0000
  H   H49       1.0  0.47833  0.12798  0.48182  1.0000
  C   C97       1.0  0.48263  0.26606  0.36688  1.0000
  C   C98       1.0  0.50356  0.36439  0.37980  1.0000
  C   C99       1.0  0.51863  0.34271  0.44616  1.0000
  N   N11       1.0  0.50848  0.29593  0.43644  1.0000
  H   H50       1.0  0.54060  0.36291  0.49841  1.0000
  C   C100      1.0  0.45879  0.19631  0.52162  1.0000
  O   O27       1.0  0.49071  0.21474  0.57937  1.0000
  O   O28       1.0  0.42251  0.20141  0.52680  1.0000
  H   H51       1.0  0.41330  0.21010  0.57661  1.0000
  C   C101      1.0  0.87437  0.35995  0.34379  1.0000
  C   C102      1.0  0.79386  0.26365  0.36214  1.0000
  C   C103      1.0  0.82516  0.28668  0.43733  1.0000
  C   C104      1.0  0.86512  0.33476  0.42664  1.0000
  H   H52       1.0  0.88591  0.35311  0.48174  1.0000
  C   C105      1.0  0.74777  0.21934  0.36693  1.0000
  C   C106      1.0  0.64943  0.14190  0.38005  1.0000
  C   C107      1.0  0.67118  0.17867  0.44636  1.0000
  N   N12       1.0  0.71795  0.21531  0.43657  1.0000
  H   H53       1.0  0.65102  0.18045  0.49868  1.0000
  C   C108      1.0  0.81760  0.26524  0.52158  1.0000
  O   O29       1.0  0.79919  0.27873  0.57939  1.0000
  O   O30       1.0  0.81251  0.22386  0.52672  1.0000
  H   H54       1.0  0.80383  0.20595  0.57652  1.0000
