data_image0
_chemical_formula_structural       C5NCHNHCNCHNHCNCHNHC5H3C2O3C5H3C2O3NC3H3NHNC3H3NHNC3H3NHC5NCHNHCNCHNHCNCHNHC5H3C2O3C5H3C2O3NC3H3NHNC3H3NHNC3H3NHC5NCHNHCNCHNHCNCHNHC5H3C2O3C5H3C2O3NC3H3NHNC3H3NHNC3H3NHC5NCHNHCNCHNHCNCHNHC5H3C2O3C5H3C2O3NC3H3NHNC3H3NHNC3H3NH
_chemical_formula_sum              "C132 N48 H96 O24"
_cell_length_a       43.6214
_cell_length_b       43.6214
_cell_length_c       15.0568
_cell_angle_alpha    90
_cell_angle_beta     90
_cell_angle_gamma    120

_space_group_name_H-M_alt    "P 1"
_space_group_IT_number       1

loop_
  _space_group_symop_operation_xyz
  'x, y, z'

loop_
  _atom_site_type_symbol
  _atom_site_label
  _atom_site_symmetry_multiplicity
  _atom_site_fract_x
  _atom_site_fract_y
  _atom_site_fract_z
  _atom_site_occupancy
  C   C1        1.0  0.18895  0.31924  0.25043  1.0000
  C   C2        1.0  0.21410  0.30790  0.26296  1.0000
  C   C3        1.0  0.30458  0.17596  0.42370  1.0000
  C   C4        1.0  0.27859  0.18635  0.41351  1.0000
  C   C5        1.0  0.22615  0.26063  0.30017  1.0000
  N   N1        1.0  0.23680  0.21340  0.33335  1.0000
  C   C6        1.0  0.21673  0.22477  0.29221  1.0000
  H   H1        1.0  0.19547  0.20736  0.25515  1.0000
  N   N2        1.0  0.20638  0.27343  0.26261  1.0000
  H   H2        1.0  0.18460  0.25607  0.23388  1.0000
  C   C7        1.0  0.23466  0.46459  0.30017  1.0000
  N   N3        1.0  0.28189  0.02247  0.33331  1.0000
  C   C8        1.0  0.27051  0.49102  0.29217  1.0000
  H   H3        1.0  0.28791  0.48717  0.25510  1.0000
  N   N4        1.0  0.22185  0.43200  0.26265  1.0000
  H   H4        1.0  0.23919  0.42757  0.23389  1.0000
  C   C9        1.0  0.03069  0.26913  0.29998  1.0000
  N   N5        1.0  0.47281  0.25848  0.33318  1.0000
  C   C10       1.0  0.00426  0.27854  0.29200  1.0000
  H   H5        1.0  0.00810  0.29980  0.25493  1.0000
  N   N6        1.0  0.06327  0.28889  0.26239  1.0000
  H   H6        1.0  0.06770  0.31067  0.23367  1.0000
  C   C11       1.0  0.17603  0.36875  0.25055  1.0000
  C   C12       1.0  0.13948  0.34326  0.24960  1.0000
  C   C13       1.0  0.12651  0.30632  0.25036  1.0000
  C   C14       1.0  0.15201  0.29527  0.24954  1.0000
  C   C15       1.0  0.20001  0.35580  0.24956  1.0000
  H   H7        1.0  0.14320  0.26888  0.25461  1.0000
  H   H8        1.0  0.22640  0.37337  0.25490  1.0000
  H   H9        1.0  0.12190  0.35207  0.25472  1.0000
  C   C16       1.0  0.18737  0.40525  0.26307  1.0000
  C   C17       1.0  0.09001  0.28116  0.26278  1.0000
  O   O1        1.0  0.24821  0.33311  0.27912  1.0000
  O   O2        1.0  0.16216  0.41413  0.27930  1.0000
  O   O3        1.0  0.08112  0.24706  0.27891  1.0000
  C   C18       1.0  0.31934  0.12769  0.42360  1.0000
  C   C19       1.0  0.35563  0.15395  0.42405  1.0000
  C   C20       1.0  0.36761  0.19072  0.42366  1.0000
  C   C21       1.0  0.34134  0.20074  0.42402  1.0000
  C   C22       1.0  0.29456  0.13967  0.42405  1.0000
  H   H10       1.0  0.34949  0.22699  0.41882  1.0000
  H   H11       1.0  0.26830  0.12156  0.41884  1.0000
  H   H12       1.0  0.37374  0.14580  0.41877  1.0000
  C   C23       1.0  0.30894  0.09131  0.41346  1.0000
  C   C24       1.0  0.40399  0.21670  0.41344  1.0000
  O   O4        1.0  0.24485  0.16074  0.39542  1.0000
  O   O5        1.0  0.33455  0.08317  0.39531  1.0000
  O   O6        1.0  0.41212  0.25044  0.39525  1.0000
  N   N7        1.0  0.25468  0.28106  0.35224  1.0000
  C   C25       1.0  0.27486  0.27000  0.39472  1.0000
  C   C26       1.0  0.26561  0.23394  0.38488  1.0000
  C   C27       1.0  0.30491  0.29641  0.44839  1.0000
  H   H13       1.0  0.30625  0.32210  0.44777  1.0000
  H   H14       1.0  0.32976  0.29999  0.42182  1.0000
  H   H15       1.0  0.30193  0.28745  0.51716  1.0000
  N   N8        1.0  0.28543  0.22048  0.41910  1.0000
  H   H16       1.0  0.30699  0.23712  0.44933  1.0000
  N   N9        1.0  0.21424  0.47268  0.35228  1.0000
  C   C28       1.0  0.22530  0.00393  0.39475  1.0000
  C   C29       1.0  0.26135  0.03073  0.38486  1.0000
  C   C30       1.0  0.19889  0.00755  0.44846  1.0000
  H   H17       1.0  0.17321  0.98321  0.44789  1.0000
  H   H18       1.0  0.19531  0.02883  0.42192  1.0000
  H   H19       1.0  0.20788  0.01354  0.51723  1.0000
  N   N10       1.0  0.27482  0.06402  0.41908  1.0000
  H   H20       1.0  0.25818  0.06893  0.44932  1.0000
  N   N11       1.0  0.02260  0.24061  0.35206  1.0000
  C   C31       1.0  0.49136  0.22043  0.39456  1.0000
  C   C32       1.0  0.46457  0.22969  0.38475  1.0000
  C   C33       1.0  0.48773  0.19038  0.44826  1.0000
  H   H21       1.0  0.51208  0.18904  0.44761  1.0000
  H   H22       1.0  0.46645  0.16553  0.42173  1.0000
  H   H23       1.0  0.48177  0.19338  0.51702  1.0000
  N   N12       1.0  0.43128  0.20987  0.41900  1.0000
  H   H24       1.0  0.42637  0.18832  0.44927  1.0000
  C   C34       1.0  0.18895  0.81924  0.25043  1.0000
  C   C35       1.0  0.21410  0.80790  0.26296  1.0000
  C   C36       1.0  0.30458  0.67596  0.42370  1.0000
  C   C37       1.0  0.27859  0.68635  0.41351  1.0000
  C   C38       1.0  0.22615  0.76063  0.30017  1.0000
  N   N13       1.0  0.23680  0.71339  0.33335  1.0000
  C   C39       1.0  0.21673  0.72477  0.29221  1.0000
  H   H25       1.0  0.19547  0.70736  0.25515  1.0000
  N   N14       1.0  0.20638  0.77343  0.26261  1.0000
  H   H26       1.0  0.18460  0.75607  0.23388  1.0000
  C   C40       1.0  0.23466  0.96459  0.30017  1.0000
  N   N15       1.0  0.28189  0.52247  0.33331  1.0000
  C   C41       1.0  0.27051  0.99102  0.29217  1.0000
  H   H27       1.0  0.28791  0.98717  0.25510  1.0000
  N   N16       1.0  0.22185  0.93200  0.26265  1.0000
  H   H28       1.0  0.23919  0.92757  0.23389  1.0000
  C   C42       1.0  0.03069  0.76913  0.29998  1.0000
  N   N17       1.0  0.47281  0.75848  0.33318  1.0000
  C   C43       1.0  0.00426  0.77854  0.29200  1.0000
  H   H29       1.0  0.00810  0.79980  0.25493  1.0000
  N   N18       1.0  0.06327  0.78889  0.26239  1.0000
  H   H30       1.0  0.06769  0.81067  0.23367  1.0000
  C   C44       1.0  0.17603  0.86875  0.25055  1.0000
  C   C45       1.0  0.13947  0.84326  0.24960  1.0000
  C   C46       1.0  0.12651  0.80632  0.25036  1.0000
  C   C47       1.0  0.15201  0.79527  0.24954  1.0000
  C   C48       1.0  0.20001  0.85580  0.24956  1.0000
  H   H31       1.0  0.14320  0.76888  0.25461  1.0000
  H   H32       1.0  0.22639  0.87337  0.25490  1.0000
  H   H33       1.0  0.12190  0.85207  0.25472  1.0000
  C   C49       1.0  0.18737  0.90524  0.26307  1.0000
  C   C50       1.0  0.09001  0.78116  0.26278  1.0000
  O   O7        1.0  0.24821  0.83311  0.27912  1.0000
  O   O8        1.0  0.16216  0.91413  0.27930  1.0000
  O   O9        1.0  0.08112  0.74705  0.27891  1.0000
  C   C51       1.0  0.31934  0.62769  0.42360  1.0000
  C   C52       1.0  0.35563  0.65395  0.42405  1.0000
  C   C53       1.0  0.36761  0.69072  0.42366  1.0000
  C   C54       1.0  0.34134  0.70074  0.42402  1.0000
  C   C55       1.0  0.29456  0.63967  0.42405  1.0000
  H   H34       1.0  0.34949  0.72699  0.41882  1.0000
  H   H35       1.0  0.26830  0.62156  0.41884  1.0000
  H   H36       1.0  0.37374  0.64580  0.41877  1.0000
  C   C56       1.0  0.30894  0.59131  0.41346  1.0000
  C   C57       1.0  0.40399  0.71670  0.41344  1.0000
  O   O10       1.0  0.24485  0.66075  0.39542  1.0000
  O   O11       1.0  0.33455  0.58317  0.39531  1.0000
  O   O12       1.0  0.41212  0.75044  0.39525  1.0000
  N   N19       1.0  0.25468  0.78106  0.35224  1.0000
  C   C58       1.0  0.27486  0.77000  0.39472  1.0000
  C   C59       1.0  0.26561  0.73394  0.38488  1.0000
  C   C60       1.0  0.30491  0.79641  0.44839  1.0000
  H   H37       1.0  0.30625  0.82210  0.44777  1.0000
  H   H38       1.0  0.32976  0.79999  0.42182  1.0000
  H   H39       1.0  0.30193  0.78745  0.51716  1.0000
  N   N20       1.0  0.28543  0.72047  0.41910  1.0000
  H   H40       1.0  0.30699  0.73712  0.44933  1.0000
  N   N21       1.0  0.21424  0.97268  0.35228  1.0000
  C   C61       1.0  0.22530  0.50393  0.39475  1.0000
  C   C62       1.0  0.26135  0.53073  0.38486  1.0000
  C   C63       1.0  0.19889  0.50755  0.44846  1.0000
  H   H41       1.0  0.17322  0.48321  0.44789  1.0000
  H   H42       1.0  0.19531  0.52883  0.42192  1.0000
  H   H43       1.0  0.20787  0.51354  0.51723  1.0000
  N   N22       1.0  0.27482  0.56402  0.41908  1.0000
  H   H44       1.0  0.25818  0.56893  0.44932  1.0000
  N   N23       1.0  0.02260  0.74060  0.35206  1.0000
  C   C64       1.0  0.49136  0.72042  0.39456  1.0000
  C   C65       1.0  0.46457  0.72969  0.38475  1.0000
  C   C66       1.0  0.48773  0.69038  0.44826  1.0000
  H   H45       1.0  0.51208  0.68904  0.44761  1.0000
  H   H46       1.0  0.46645  0.66553  0.42173  1.0000
  H   H47       1.0  0.48177  0.69338  0.51702  1.0000
  N   N24       1.0  0.43128  0.70987  0.41900  1.0000
  H   H48       1.0  0.42637  0.68832  0.44927  1.0000
  C   C67       1.0  0.68895  0.31924  0.25043  1.0000
  C   C68       1.0  0.71410  0.30790  0.26296  1.0000
  C   C69       1.0  0.80458  0.17596  0.42370  1.0000
  C   C70       1.0  0.77860  0.18635  0.41351  1.0000
  C   C71       1.0  0.72615  0.26063  0.30017  1.0000
  N   N25       1.0  0.73680  0.21340  0.33335  1.0000
  C   C72       1.0  0.71673  0.22477  0.29221  1.0000
  H   H49       1.0  0.69547  0.20736  0.25515  1.0000
  N   N26       1.0  0.70638  0.27343  0.26261  1.0000
  H   H50       1.0  0.68460  0.25607  0.23388  1.0000
  C   C73       1.0  0.73466  0.46459  0.30017  1.0000
  N   N27       1.0  0.78189  0.02247  0.33331  1.0000
  C   C74       1.0  0.77051  0.49102  0.29217  1.0000
  H   H51       1.0  0.78791  0.48717  0.25510  1.0000
  N   N28       1.0  0.72185  0.43200  0.26265  1.0000
  H   H52       1.0  0.73919  0.42757  0.23389  1.0000
  C   C75       1.0  0.53069  0.26913  0.29998  1.0000
  N   N29       1.0  0.97282  0.25848  0.33318  1.0000
  C   C76       1.0  0.50426  0.27854  0.29200  1.0000
  H   H53       1.0  0.50810  0.29980  0.25493  1.0000
  N   N30       1.0  0.56327  0.28889  0.26239  1.0000
  H   H54       1.0  0.56770  0.31067  0.23367  1.0000
  C   C77       1.0  0.67603  0.36875  0.25055  1.0000
  C   C78       1.0  0.63948  0.34326  0.24960  1.0000
  C   C79       1.0  0.62651  0.30632  0.25036  1.0000
  C   C80       1.0  0.65201  0.29527  0.24954  1.0000
  C   C81       1.0  0.70001  0.35580  0.24956  1.0000
  H   H55       1.0  0.64320  0.26888  0.25461  1.0000
  H   H56       1.0  0.72640  0.37337  0.25490  1.0000
  H   H57       1.0  0.62189  0.35207  0.25472  1.0000
  C   C82       1.0  0.68737  0.40525  0.26307  1.0000
  C   C83       1.0  0.59001  0.28116  0.26278  1.0000
  O   O13       1.0  0.74821  0.33311  0.27912  1.0000
  O   O14       1.0  0.66216  0.41413  0.27930  1.0000
  O   O15       1.0  0.58112  0.24706  0.27891  1.0000
  C   C84       1.0  0.81934  0.12769  0.42360  1.0000
  C   C85       1.0  0.85563  0.15395  0.42405  1.0000
  C   C86       1.0  0.86761  0.19072  0.42366  1.0000
  C   C87       1.0  0.84134  0.20074  0.42402  1.0000
  C   C88       1.0  0.79456  0.13967  0.42405  1.0000
  H   H58       1.0  0.84949  0.22699  0.41882  1.0000
  H   H59       1.0  0.76830  0.12156  0.41884  1.0000
  H   H60       1.0  0.87374  0.14580  0.41877  1.0000
  C   C89       1.0  0.80894  0.09131  0.41346  1.0000
  C   C90       1.0  0.90399  0.21670  0.41344  1.0000
  O   O16       1.0  0.74485  0.16074  0.39542  1.0000
  O   O17       1.0  0.83455  0.08317  0.39531  1.0000
  O   O18       1.0  0.91212  0.25044  0.39525  1.0000
  N   N31       1.0  0.75468  0.28106  0.35224  1.0000
  C   C91       1.0  0.77486  0.27000  0.39472  1.0000
  C   C92       1.0  0.76561  0.23394  0.38488  1.0000
  C   C93       1.0  0.80491  0.29641  0.44839  1.0000
  H   H61       1.0  0.80625  0.32210  0.44777  1.0000
  H   H62       1.0  0.82976  0.29999  0.42182  1.0000
  H   H63       1.0  0.80193  0.28745  0.51716  1.0000
  N   N32       1.0  0.78543  0.22048  0.41910  1.0000
  H   H64       1.0  0.80699  0.23712  0.44933  1.0000
  N   N33       1.0  0.71424  0.47268  0.35228  1.0000
  C   C94       1.0  0.72530  0.00393  0.39475  1.0000
  C   C95       1.0  0.76135  0.03073  0.38486  1.0000
  C   C96       1.0  0.69889  0.00755  0.44846  1.0000
  H   H65       1.0  0.67322  0.98321  0.44789  1.0000
  H   H66       1.0  0.69531  0.02883  0.42192  1.0000
  H   H67       1.0  0.70788  0.01354  0.51723  1.0000
  N   N34       1.0  0.77482  0.06402  0.41908  1.0000
  H   H68       1.0  0.75818  0.06893  0.44932  1.0000
  N   N35       1.0  0.52260  0.24061  0.35206  1.0000
  C   C97       1.0  0.99136  0.22043  0.39456  1.0000
  C   C98       1.0  0.96457  0.22969  0.38475  1.0000
  C   C99       1.0  0.98773  0.19038  0.44826  1.0000
  H   H69       1.0  0.01208  0.18904  0.44761  1.0000
  H   H70       1.0  0.96645  0.16553  0.42173  1.0000
  H   H71       1.0  0.98177  0.19338  0.51702  1.0000
  N   N36       1.0  0.93128  0.20987  0.41900  1.0000
  H   H72       1.0  0.92637  0.18832  0.44927  1.0000
  C   C100      1.0  0.68895  0.81924  0.25043  1.0000
  C   C101      1.0  0.71410  0.80790  0.26296  1.0000
  C   C102      1.0  0.80458  0.67596  0.42370  1.0000
  C   C103      1.0  0.77860  0.68635  0.41351  1.0000
  C   C104      1.0  0.72615  0.76063  0.30017  1.0000
  N   N37       1.0  0.73680  0.71339  0.33335  1.0000
  C   C105      1.0  0.71673  0.72477  0.29221  1.0000
  H   H73       1.0  0.69547  0.70736  0.25515  1.0000
  N   N38       1.0  0.70638  0.77343  0.26261  1.0000
  H   H74       1.0  0.68460  0.75607  0.23388  1.0000
  C   C106      1.0  0.73466  0.96459  0.30017  1.0000
  N   N39       1.0  0.78189  0.52247  0.33331  1.0000
  C   C107      1.0  0.77051  0.99102  0.29217  1.0000
  H   H75       1.0  0.78792  0.98717  0.25510  1.0000
  N   N40       1.0  0.72185  0.93200  0.26265  1.0000
  H   H76       1.0  0.73919  0.92757  0.23389  1.0000
  C   C108      1.0  0.53069  0.76913  0.29998  1.0000
  N   N41       1.0  0.97281  0.75848  0.33318  1.0000
  C   C109      1.0  0.50426  0.77854  0.29200  1.0000
  H   H77       1.0  0.50810  0.79980  0.25493  1.0000
  N   N42       1.0  0.56327  0.78889  0.26239  1.0000
  H   H78       1.0  0.56770  0.81067  0.23367  1.0000
  C   C110      1.0  0.67603  0.86875  0.25055  1.0000
  C   C111      1.0  0.63948  0.84326  0.24960  1.0000
  C   C112      1.0  0.62651  0.80632  0.25036  1.0000
  C   C113      1.0  0.65201  0.79527  0.24954  1.0000
  C   C114      1.0  0.70001  0.85580  0.24956  1.0000
  H   H79       1.0  0.64320  0.76888  0.25461  1.0000
  H   H80       1.0  0.72640  0.87337  0.25490  1.0000
  H   H81       1.0  0.62190  0.85207  0.25472  1.0000
  C   C115      1.0  0.68737  0.90524  0.26307  1.0000
  C   C116      1.0  0.59001  0.78116  0.26278  1.0000
  O   O19       1.0  0.74821  0.83311  0.27912  1.0000
  O   O20       1.0  0.66216  0.91413  0.27930  1.0000
  O   O21       1.0  0.58112  0.74705  0.27891  1.0000
  C   C117      1.0  0.81934  0.62769  0.42360  1.0000
  C   C118      1.0  0.85563  0.65395  0.42405  1.0000
  C   C119      1.0  0.86761  0.69072  0.42366  1.0000
  C   C120      1.0  0.84135  0.70074  0.42402  1.0000
  C   C121      1.0  0.79456  0.63967  0.42405  1.0000
  H   H82       1.0  0.84950  0.72699  0.41882  1.0000
  H   H83       1.0  0.76830  0.62156  0.41884  1.0000
  H   H84       1.0  0.87374  0.64580  0.41877  1.0000
  C   C122      1.0  0.80894  0.59131  0.41346  1.0000
  C   C123      1.0  0.90399  0.71670  0.41344  1.0000
  O   O22       1.0  0.74485  0.66075  0.39542  1.0000
  O   O23       1.0  0.83455  0.58317  0.39531  1.0000
  O   O24       1.0  0.91212  0.75044  0.39525  1.0000
  N   N43       1.0  0.75468  0.78106  0.35224  1.0000
  C   C124      1.0  0.77486  0.77000  0.39472  1.0000
  C   C125      1.0  0.76561  0.73394  0.38488  1.0000
  C   C126      1.0  0.80491  0.79641  0.44839  1.0000
  H   H85       1.0  0.80625  0.82210  0.44777  1.0000
  H   H86       1.0  0.82976  0.79999  0.42182  1.0000
  H   H87       1.0  0.80193  0.78745  0.51716  1.0000
  N   N44       1.0  0.78543  0.72047  0.41910  1.0000
  H   H88       1.0  0.80699  0.73712  0.44933  1.0000
  N   N45       1.0  0.71423  0.97268  0.35228  1.0000
  C   C127      1.0  0.72530  0.50393  0.39475  1.0000
  C   C128      1.0  0.76135  0.53073  0.38486  1.0000
  C   C129      1.0  0.69889  0.50755  0.44846  1.0000
  H   H89       1.0  0.67322  0.48321  0.44789  1.0000
  H   H90       1.0  0.69531  0.52883  0.42192  1.0000
  H   H91       1.0  0.70787  0.51354  0.51723  1.0000
  N   N46       1.0  0.77482  0.56402  0.41908  1.0000
  H   H92       1.0  0.75818  0.56893  0.44932  1.0000
  N   N47       1.0  0.52260  0.74060  0.35206  1.0000
  C   C130      1.0  0.99136  0.72042  0.39456  1.0000
  C   C131      1.0  0.96457  0.72969  0.38475  1.0000
  C   C132      1.0  0.98773  0.69038  0.44826  1.0000
  H   H93       1.0  0.01208  0.68904  0.44761  1.0000
  H   H94       1.0  0.96645  0.66553  0.42173  1.0000
  H   H95       1.0  0.98177  0.69338  0.51702  1.0000
  N   N48       1.0  0.93128  0.70987  0.41900  1.0000
  H   H96       1.0  0.92637  0.68832  0.44927  1.0000
