data_image0
_chemical_formula_structural       C3NC3NC5NC5NC20H18C4H4C3NH2NH2NC3NH2NH2NC8H8C3NH2NH2NC3NH2NH2N
_chemical_formula_sum              "C60 N16 H46"
_cell_length_a       25.6598
_cell_length_b       25.6596
_cell_length_c       14.58
_cell_angle_alpha    90
_cell_angle_beta     90
_cell_angle_gamma    90.0371

_space_group_name_H-M_alt    "P 1"
_space_group_IT_number       1

loop_
  _space_group_symop_operation_xyz
  'x, y, z'

loop_
  _atom_site_type_symbol
  _atom_site_label
  _atom_site_symmetry_multiplicity
  _atom_site_fract_x
  _atom_site_fract_y
  _atom_site_fract_z
  _atom_site_occupancy
  C   C1        1.0  0.91914  0.87679  0.34430  1.0000
  C   C2        1.0  0.88024  0.91396  0.34492  1.0000
  C   C3        1.0  0.90338  0.96331  0.34492  1.0000
  N   N1        1.0  0.95552  0.95388  0.34647  1.0000
  C   C4        1.0  0.96730  0.90221  0.34558  1.0000
  C   C5        1.0  0.01670  0.87666  0.34463  1.0000
  C   C6        1.0  0.06544  0.90334  0.34556  1.0000
  N   N2        1.0  0.07458  0.95536  0.34657  1.0000
  C   C7        1.0  0.12616  0.96682  0.34589  1.0000
  C   C8        1.0  0.15180  0.91884  0.34455  1.0000
  C   C9        1.0  0.11460  0.87993  0.34538  1.0000
  C   C10       1.0  0.15050  0.01672  0.34498  1.0000
  C   C11       1.0  0.12262  0.06489  0.34568  1.0000
  N   N3        1.0  0.07048  0.07432  0.34661  1.0000
  C   C12       1.0  0.05871  0.12599  0.34513  1.0000
  C   C13       1.0  0.10688  0.15140  0.34424  1.0000
  C   C14       1.0  0.14577  0.11423  0.34557  1.0000
  C   C15       1.0  0.00933  0.15154  0.34330  1.0000
  C   C16       1.0  0.96057  0.12487  0.34386  1.0000
  N   N4        1.0  0.95143  0.07284  0.34526  1.0000
  C   C17       1.0  0.89985  0.06138  0.34422  1.0000
  C   C18       1.0  0.87422  0.10936  0.34208  1.0000
  C   C19       1.0  0.91142  0.14827  0.34291  1.0000
  C   C20       1.0  0.87551  0.01148  0.34354  1.0000
  C   C21       1.0  0.81956  0.00960  0.33794  1.0000
  C   C22       1.0  0.70822  0.00044  0.32792  1.0000
  C   C23       1.0  0.74004  0.98874  0.25134  1.0000
  C   C24       1.0  0.79469  0.99382  0.25591  1.0000
  C   C25       1.0  0.00831  0.20751  0.33757  1.0000
  C   C26       1.0  0.99969  0.31888  0.32765  1.0000
  C   C27       1.0  0.98854  0.28716  0.25066  1.0000
  C   C28       1.0  0.99337  0.23251  0.25519  1.0000
  C   C29       1.0  0.20645  0.01861  0.33947  1.0000
  C   C30       1.0  0.23133  0.03409  0.25727  1.0000
  C   C31       1.0  0.28596  0.03927  0.25272  1.0000
  C   C32       1.0  0.31778  0.02787  0.32944  1.0000
  C   C33       1.0  0.01776  0.82069  0.33894  1.0000
  C   C34       1.0  0.03299  0.79572  0.25670  1.0000
  C   C35       1.0  0.02658  0.70934  0.32905  1.0000
  C   C36       1.0  0.03791  0.74108  0.25219  1.0000
  H   H1        1.0  0.05064  0.72469  0.19219  1.0000
  H   H2        1.0  0.04228  0.81741  0.20006  1.0000
  H   H3        1.0  0.91249  0.83753  0.34293  1.0000
  H   H4        1.0  0.84134  0.90546  0.34457  1.0000
  H   H5        1.0  0.98139  0.98096  0.34668  1.0000
  H   H6        1.0  0.04462  0.04725  0.34639  1.0000
  H   H7        1.0  0.12286  0.84099  0.34507  1.0000
  H   H8        1.0  0.19109  0.91240  0.34319  1.0000
  H   H9        1.0  0.20960  0.04328  0.20066  1.0000
  H   H10       1.0  0.30230  0.05206  0.19270  1.0000
  H   H11       1.0  0.18468  0.12273  0.34555  1.0000
  H   H12       1.0  0.11354  0.19066  0.34254  1.0000
  H   H13       1.0  0.83494  0.11579  0.34023  1.0000
  H   H14       1.0  0.90316  0.18721  0.34211  1.0000
  H   H15       1.0  0.98426  0.21084  0.19844  1.0000
  H   H16       1.0  0.97607  0.30359  0.19052  1.0000
  H   H17       1.0  0.81642  0.98446  0.19939  1.0000
  H   H18       1.0  0.72371  0.97575  0.19146  1.0000
  C   C37       1.0  0.99035  0.37228  0.32343  1.0000
  C   C38       1.0  0.37118  0.03728  0.32508  1.0000
  C   C39       1.0  0.03599  0.65594  0.32485  1.0000
  C   C40       1.0  0.65479  0.99110  0.32367  1.0000
  H   H19       1.0  0.95770  0.38424  0.29306  1.0000
  H   H20       1.0  0.38313  0.07002  0.29496  1.0000
  H   H21       1.0  0.06866  0.64403  0.29450  1.0000
  H   H22       1.0  0.64278  0.95841  0.29345  1.0000
  C   C41       1.0  0.01797  0.45894  0.35311  1.0000
  C   C42       1.0  0.01828  0.48685  0.26848  1.0000
  C   C43       1.0  0.00783  0.54158  0.26874  1.0000
  N   N5        1.0  0.99614  0.56746  0.18927  1.0000
  H   H23       1.0  0.98855  0.54890  0.13295  1.0000
  H   H24       1.0  0.98492  0.60355  0.18985  1.0000
  N   N6        1.0  0.02992  0.46121  0.18878  1.0000
  H   H25       1.0  0.04083  0.42501  0.18857  1.0000
  H   H26       1.0  0.03701  0.47979  0.13224  1.0000
  N   N7        1.0  0.02254  0.40663  0.35444  1.0000
  C   C44       1.0  0.56817  0.01888  0.35308  1.0000
  C   C45       1.0  0.54027  0.01923  0.26844  1.0000
  C   C46       1.0  0.48550  0.00895  0.26872  1.0000
  N   N8        1.0  0.45956  0.99733  0.18929  1.0000
  H   H27       1.0  0.47787  0.99012  0.13256  1.0000
  H   H28       1.0  0.42329  0.98659  0.18951  1.0000
  N   N9        1.0  0.56599  0.03073  0.18873  1.0000
  H   H29       1.0  0.60224  0.04151  0.18852  1.0000
  H   H30       1.0  0.54747  0.03785  0.13217  1.0000
  N   N10       1.0  0.62049  0.02339  0.35442  1.0000
  C   C47       1.0  0.78780  0.02171  0.41439  1.0000
  C   C48       1.0  0.73299  0.01752  0.40932  1.0000
  C   C49       1.0  0.01990  0.23915  0.41443  1.0000
  C   C50       1.0  0.01595  0.29397  0.40943  1.0000
  C   C51       1.0  0.29301  0.01110  0.41103  1.0000
  C   C52       1.0  0.23820  0.00683  0.41610  1.0000
  C   C53       1.0  0.00593  0.78901  0.41565  1.0000
  C   C54       1.0  0.00993  0.73419  0.41064  1.0000
  H   H31       1.0  0.00253  0.71270  0.46833  1.0000
  H   H32       1.0  0.99534  0.80582  0.47652  1.0000
  H   H33       1.0  0.22147  0.99593  0.47686  1.0000
  H   H34       1.0  0.31456  0.00354  0.46859  1.0000
  H   H35       1.0  0.03027  0.22232  0.47539  1.0000
  H   H36       1.0  0.02326  0.31545  0.46717  1.0000
  H   H37       1.0  0.71144  0.02525  0.46680  1.0000
  H   H38       1.0  0.80452  0.03279  0.47506  1.0000
  C   C55       1.0  0.00832  0.56924  0.35363  1.0000
  C   C56       1.0  0.01251  0.54189  0.43852  1.0000
  C   C57       1.0  0.01402  0.48606  0.43826  1.0000
  N   N11       1.0  0.01580  0.56977  0.51845  1.0000
  H   H39       1.0  0.01600  0.60760  0.51909  1.0000
  H   H40       1.0  0.02502  0.55375  0.57629  1.0000
  N   N12       1.0  0.01088  0.45794  0.51795  1.0000
  H   H41       1.0  0.01091  0.42011  0.51841  1.0000
  H   H42       1.0  0.00212  0.47378  0.57619  1.0000
  N   N13       1.0  0.00371  0.62154  0.35540  1.0000
  C   C58       1.0  0.45785  0.00948  0.35360  1.0000
  C   C59       1.0  0.48522  0.01357  0.43849  1.0000
  C   C60       1.0  0.54104  0.01500  0.43824  1.0000
  N   N14       1.0  0.45732  0.01689  0.51839  1.0000
  H   H43       1.0  0.41949  0.01689  0.51916  1.0000
  H   H44       1.0  0.47332  0.02569  0.57647  1.0000
  N   N15       1.0  0.56914  0.01190  0.51797  1.0000
  H   H45       1.0  0.60697  0.01176  0.51830  1.0000
  H   H46       1.0  0.55331  0.00311  0.57618  1.0000
  N   N16       1.0  0.40554  0.00492  0.35538  1.0000
