data_image0
_chemical_formula_structural       C2NC3H3OC2NC3H3ONCHNCHNCHNCHC2NC3H3OC2NC3H3OC2NC3H3OC2NC3H3ONCHNCHNCHNCHC2NC3H3OC2NC3H3OC2NC3H3OC2NC3H3OC6H3C6H3C6H3C6H3C6H3C6H3C6H3C6H3C6H3C6H3C6H3C6H3NCHNCHC2NC3H3OC2NC3H3OC2NC3H3OC2NC3H3ONCHNCHNCHNCHC2NC3H3OC2NC3H3OC2NC3H3OC2NC3H3ONCHNCHNCHNCH
_chemical_formula_sum              "C180 N36 H108 O18"
_cell_length_a       34.2415
_cell_length_b       34.0832
_cell_length_c       14.8971
_cell_angle_alpha    90
_cell_angle_beta     90
_cell_angle_gamma    90.2697

_space_group_name_H-M_alt    "P 1"
_space_group_IT_number       1

loop_
  _space_group_symop_operation_xyz
  'x, y, z'

loop_
  _atom_site_type_symbol
  _atom_site_label
  _atom_site_symmetry_multiplicity
  _atom_site_fract_x
  _atom_site_fract_y
  _atom_site_fract_z
  _atom_site_occupancy
  C   C1        1.0  0.97236  0.53067  0.33028  1.0000
  C   C2        1.0  0.02924  0.47074  0.33622  1.0000
  N   N1        1.0  0.03399  0.50393  0.28657  1.0000
  C   C3        1.0  0.00784  0.53387  0.28091  1.0000
  C   C4        1.0  0.01608  0.56437  0.22232  1.0000
  C   C5        1.0  0.00075  0.56110  0.13184  1.0000
  H   H1        1.0  0.96960  0.55400  0.13275  1.0000
  H   H2        1.0  0.01615  0.53828  0.09461  1.0000
  H   H3        1.0  0.00431  0.58893  0.09633  1.0000
  O   O1        1.0  0.04882  0.57872  0.22812  1.0000
  C   C6        1.0  0.47013  0.97134  0.33159  1.0000
  C   C7        1.0  0.53091  0.02779  0.33705  1.0000
  N   N2        1.0  0.49788  0.03293  0.28773  1.0000
  C   C8        1.0  0.46752  0.00701  0.28231  1.0000
  C   C9        1.0  0.43730  0.01555  0.22372  1.0000
  C   C10       1.0  0.43960  1.00000  0.13341  1.0000
  H   H4        1.0  0.44590  0.96861  0.13438  1.0000
  H   H5        1.0  0.46247  0.01508  0.09540  1.0000
  H   H6        1.0  0.41177  0.00398  0.09880  1.0000
  O   O2        1.0  0.42372  0.04858  0.23094  1.0000
  N   N3        1.0  0.03923  0.31699  0.30002  1.0000
  C   C11       1.0  0.02808  0.27873  0.29651  1.0000
  H   H7        1.0  0.00580  0.27069  0.25465  1.0000
  N   N4        1.0  0.96174  0.68397  0.30137  1.0000
  C   C12       1.0  0.97294  0.72220  0.29758  1.0000
  H   H8        1.0  0.99476  0.73029  0.25451  1.0000
  N   N5        1.0  0.68423  0.03799  0.30221  1.0000
  C   C13       1.0  0.72225  0.02689  0.29868  1.0000
  H   H9        1.0  0.73010  0.00448  0.25695  1.0000
  N   N6        1.0  0.31741  0.96141  0.30169  1.0000
  C   C14       1.0  0.27953  0.97298  0.29810  1.0000
  H   H10       1.0  0.27191  0.99530  0.25589  1.0000
  C   C15       1.0  0.43335  0.83030  0.32452  1.0000
  C   C16       1.0  0.45471  0.75048  0.33133  1.0000
  N   N7        1.0  0.42487  0.76357  0.27931  1.0000
  C   C17       1.0  0.41320  0.80154  0.27268  1.0000
  C   C18       1.0  0.38385  0.80958  0.21163  1.0000
  C   C19       1.0  0.39158  0.83086  0.12925  1.0000
  H   H11       1.0  0.36977  0.85383  0.12093  1.0000
  H   H12       1.0  0.38989  0.81095  0.07191  1.0000
  H   H13       1.0  0.42044  0.84467  0.12923  1.0000
  O   O3        1.0  0.35380  0.79004  0.21536  1.0000
  C   C20       1.0  0.56791  0.16859  0.32205  1.0000
  C   C21       1.0  0.54673  0.24843  0.32837  1.0000
  N   N8        1.0  0.57627  0.23518  0.27565  1.0000
  C   C22       1.0  0.58782  0.19716  0.26921  1.0000
  C   C23       1.0  0.61681  0.18879  0.20747  1.0000
  C   C24       1.0  0.60833  0.16762  0.12535  1.0000
  H   H14       1.0  0.63002  0.14461  0.11592  1.0000
  H   H15       1.0  0.60959  0.18758  0.06806  1.0000
  H   H16       1.0  0.57945  0.15385  0.12651  1.0000
  O   O4        1.0  0.64694  0.20823  0.21034  1.0000
  C   C25       1.0  0.83169  0.56660  0.32346  1.0000
  C   C26       1.0  0.75181  0.54596  0.33041  1.0000
  N   N9        1.0  0.76541  0.57570  0.27813  1.0000
  C   C27       1.0  0.80345  0.58705  0.27141  1.0000
  C   C28       1.0  0.81258  0.61644  0.21052  1.0000
  C   C29       1.0  0.82498  0.60433  0.12170  1.0000
  H   H17       1.0  0.83660  0.62945  0.08462  1.0000
  H   H18       1.0  0.80041  0.59199  0.08420  1.0000
  H   H19       1.0  0.84806  0.58237  0.12579  1.0000
  O   O5        1.0  0.79199  0.64569  0.21283  1.0000
  C   C30       1.0  0.16952  0.43419  0.31877  1.0000
  C   C31       1.0  0.24963  0.45347  0.32707  1.0000
  N   N10       1.0  0.23562  0.42477  0.27237  1.0000
  C   C32       1.0  0.19741  0.41419  0.26487  1.0000
  C   C33       1.0  0.18827  0.38589  0.20150  1.0000
  C   C34       1.0  0.16648  0.39531  0.12100  1.0000
  H   H20       1.0  0.14268  0.37420  0.11271  1.0000
  H   H21       1.0  0.18558  0.39371  0.06240  1.0000
  H   H22       1.0  0.15390  0.42469  0.12358  1.0000
  O   O6        1.0  0.20666  0.35518  0.20254  1.0000
  N   N11       1.0  0.11738  0.10620  0.30047  1.0000
  C   C35       1.0  0.14200  0.07506  0.29524  1.0000
  H   H23       1.0  0.15706  0.07011  0.23713  1.0000
  N   N12       1.0  0.88382  0.89437  0.30374  1.0000
  C   C36       1.0  0.85919  0.92550  0.29855  1.0000
  H   H24       1.0  0.84387  0.93024  0.24070  1.0000
  N   N13       1.0  0.89514  0.11677  0.30133  1.0000
  C   C37       1.0  0.92679  0.14092  0.29551  1.0000
  H   H25       1.0  0.93194  0.15596  0.23731  1.0000
  N   N14       1.0  0.10637  0.88412  0.30147  1.0000
  C   C38       1.0  0.07483  0.85980  0.29613  1.0000
  H   H26       1.0  0.06971  0.84467  0.23804  1.0000
  C   C39       1.0  0.40983  0.61262  0.30906  1.0000
  C   C40       1.0  0.36176  0.54606  0.31583  1.0000
  N   N15       1.0  0.38605  0.55314  0.24552  1.0000
  C   C41       1.0  0.40920  0.58533  0.23690  1.0000
  C   C42       1.0  0.43263  0.58791  0.16127  1.0000
  C   C43       1.0  0.43023  0.62046  0.09899  1.0000
  H   H27       1.0  0.41027  0.64322  0.12222  1.0000
  H   H28       1.0  0.41997  0.61003  0.03378  1.0000
  H   H29       1.0  0.45914  0.63360  0.09069  1.0000
  O   O7        1.0  0.45169  0.55923  0.13888  1.0000
  C   C44       1.0  0.59175  0.38630  0.30764  1.0000
  C   C45       1.0  0.64004  0.45269  0.31587  1.0000
  N   N16       1.0  0.61593  0.44584  0.24511  1.0000
  C   C46       1.0  0.59270  0.41375  0.23580  1.0000
  C   C47       1.0  0.56955  0.41140  0.15967  1.0000
  C   C48       1.0  0.57190  0.37889  0.09728  1.0000
  H   H30       1.0  0.59189  0.35613  0.12035  1.0000
  H   H31       1.0  0.58212  0.38938  0.03209  1.0000
  H   H32       1.0  0.54299  0.36575  0.08902  1.0000
  O   O8        1.0  0.55032  0.44005  0.13786  1.0000
  C   C49       1.0  0.61535  0.59270  0.30969  1.0000
  C   C50       1.0  0.54895  0.64021  0.31742  1.0000
  N   N17       1.0  0.55648  0.61676  0.24582  1.0000
  C   C51       1.0  0.58862  0.59397  0.23674  1.0000
  C   C52       1.0  0.59157  0.57116  0.16004  1.0000
  C   C53       1.0  0.62442  0.57430  0.09912  1.0000
  H   H33       1.0  0.64699  0.59425  0.12413  1.0000
  H   H34       1.0  0.61454  0.58515  0.03403  1.0000
  H   H35       1.0  0.63744  0.54540  0.08993  1.0000
  O   O9        1.0  0.56309  0.55209  0.13568  1.0000
  C   C54       1.0  0.38595  0.40597  0.30686  1.0000
  C   C55       1.0  0.45248  0.35861  0.31434  1.0000
  N   N18       1.0  0.44494  0.38217  0.24292  1.0000
  C   C56       1.0  0.41270  0.40485  0.23390  1.0000
  C   C57       1.0  0.40980  0.42776  0.15737  1.0000
  C   C58       1.0  0.37684  0.42513  0.09666  1.0000
  H   H36       1.0  0.35442  0.40481  0.12084  1.0000
  H   H37       1.0  0.38666  0.41499  0.03093  1.0000
  H   H38       1.0  0.36368  0.45405  0.08916  1.0000
  O   O10       1.0  0.43802  0.44754  0.13443  1.0000
  C   C59       1.0  0.07892  0.37164  0.34494  1.0000
  C   C60       1.0  0.11823  0.38370  0.33553  1.0000
  C   C61       1.0  0.12914  0.42352  0.32600  1.0000
  C   C62       1.0  0.09912  0.45196  0.32792  1.0000
  C   C63       1.0  0.05911  0.44141  0.33653  1.0000
  C   C64       1.0  0.04979  0.40092  0.34372  1.0000
  H   H39       1.0  0.10667  0.48097  0.32245  1.0000
  H   H40       1.0  0.02116  0.39239  0.34818  1.0000
  H   H41       1.0  0.13956  0.36281  0.33521  1.0000
  C   C65       1.0  0.92241  0.62931  0.34753  1.0000
  C   C66       1.0  0.88305  0.61717  0.34010  1.0000
  C   C67       1.0  0.87210  0.57734  0.33010  1.0000
  C   C68       1.0  0.90221  0.54897  0.32944  1.0000
  C   C69       1.0  0.94226  0.55977  0.33362  1.0000
  C   C70       1.0  0.95155  0.60012  0.34329  1.0000
  H   H42       1.0  0.89486  0.52000  0.32163  1.0000
  H   H43       1.0  0.98012  0.60846  0.35087  1.0000
  H   H44       1.0  0.86170  0.63800  0.34196  1.0000
  C   C71       1.0  0.63004  0.07780  0.34700  1.0000
  C   C72       1.0  0.61824  0.11730  0.33822  1.0000
  C   C73       1.0  0.57865  0.12814  0.32872  1.0000
  C   C74       1.0  0.55022  0.09786  0.32985  1.0000
  C   C75       1.0  0.56047  0.05770  0.33782  1.0000
  C   C76       1.0  0.60069  0.04843  0.34518  1.0000
  H   H45       1.0  0.52138  0.10533  0.32433  1.0000
  H   H46       1.0  0.60896  0.01967  0.34934  1.0000
  H   H47       1.0  0.63912  0.13882  0.33848  1.0000
  C   C77       1.0  0.37125  0.92130  0.34697  1.0000
  C   C78       1.0  0.38304  0.88174  0.33960  1.0000
  C   C79       1.0  0.42265  0.87079  0.33061  1.0000
  C   C80       1.0  0.45112  0.90106  0.33039  1.0000
  C   C81       1.0  0.44074  0.94126  0.33457  1.0000
  C   C82       1.0  0.40062  0.95058  0.34354  1.0000
  H   H48       1.0  0.47993  0.89370  0.32312  1.0000
  H   H49       1.0  0.39259  0.97928  0.35110  1.0000
  H   H50       1.0  0.36215  0.86025  0.34079  1.0000
  C   C83       1.0  0.06372  0.14162  0.36243  1.0000
  C   C84       1.0  0.02454  0.12866  0.36263  1.0000
  C   C85       1.0  0.99311  0.15514  0.35630  1.0000
  C   C86       1.0  0.00138  0.19558  0.34738  1.0000
  C   C87       1.0  0.04042  0.20975  0.34778  1.0000
  C   C88       1.0  0.07128  0.18221  0.35472  1.0000
  H   H51       1.0  0.97861  0.21495  0.34650  1.0000
  H   H52       1.0  0.09969  0.19177  0.35580  1.0000
  H   H53       1.0  0.01875  0.09917  0.36788  1.0000
  C   C89       1.0  0.93792  0.85926  0.36436  1.0000
  C   C90       1.0  0.97710  0.87220  0.36355  1.0000
  C   C91       1.0  0.00850  0.84569  0.35709  1.0000
  C   C92       1.0  0.00018  0.80524  0.34864  1.0000
  C   C93       1.0  0.96113  0.79111  0.34966  1.0000
  C   C94       1.0  0.93031  0.81867  0.35707  1.0000
  H   H54       1.0  0.02292  0.78584  0.34742  1.0000
  H   H55       1.0  0.90190  0.80912  0.35881  1.0000
  H   H56       1.0  0.98292  0.90169  0.36837  1.0000
  C   C95       1.0  0.85904  0.06327  0.36373  1.0000
  C   C96       1.0  0.87174  0.02399  0.36352  1.0000
  C   C97       1.0  0.84525  0.99227  0.35811  1.0000
  C   C98       1.0  0.80500  0.00038  0.34956  1.0000
  C   C99       1.0  0.79107  0.03956  0.34968  1.0000
  C   C100      1.0  0.81866  0.07069  0.35641  1.0000
  H   H57       1.0  0.78561  0.97742  0.34894  1.0000
  H   H58       1.0  0.80932  0.09920  0.35754  1.0000
  H   H59       1.0  0.90110  0.01834  0.36826  1.0000
  C   C101      1.0  0.14247  0.93783  0.36285  1.0000
  C   C102      1.0  0.12996  0.97717  0.36212  1.0000
  C   C103      1.0  0.15664  0.00874  0.35652  1.0000
  C   C104      1.0  0.19686  0.00039  0.34840  1.0000
  C   C105      1.0  0.21058  0.96113  0.34913  1.0000
  C   C106      1.0  0.18281  0.93018  0.35600  1.0000
  H   H60       1.0  0.21638  0.02323  0.34758  1.0000
  H   H61       1.0  0.19200  0.90162  0.35756  1.0000
  H   H62       1.0  0.10064  0.98298  0.36670  1.0000
  C   C107      1.0  0.44001  0.64102  0.31975  1.0000
  C   C108      1.0  0.47917  0.62843  0.32072  1.0000
  C   C109      1.0  0.51062  0.65520  0.32624  1.0000
  C   C110      1.0  0.50235  0.69566  0.33355  1.0000
  C   C111      1.0  0.46329  0.70953  0.33247  1.0000
  C   C112      1.0  0.43247  0.68159  0.32612  1.0000
  H   H63       1.0  0.52512  0.71523  0.33392  1.0000
  H   H64       1.0  0.40405  0.69083  0.32418  1.0000
  H   H65       1.0  0.48493  0.59896  0.31642  1.0000
  C   C113      1.0  0.56151  0.35788  0.31720  1.0000
  C   C114      1.0  0.52233  0.37047  0.31772  1.0000
  C   C115      1.0  0.49086  0.34368  0.32291  1.0000
  C   C116      1.0  0.49913  0.30323  0.33039  1.0000
  C   C117      1.0  0.53818  0.28938  0.32939  1.0000
  C   C118      1.0  0.56903  0.31729  0.32342  1.0000
  H   H66       1.0  0.47637  0.28364  0.33047  1.0000
  H   H67       1.0  0.59744  0.30803  0.32183  1.0000
  H   H68       1.0  0.51657  0.39994  0.31357  1.0000
  C   C119      1.0  0.64312  0.56213  0.31993  1.0000
  C   C120      1.0  0.62978  0.52294  0.32034  1.0000
  C   C121      1.0  0.65578  0.49101  0.32514  1.0000
  C   C122      1.0  0.69622  0.49883  0.33261  1.0000
  C   C123      1.0  0.71084  0.53789  0.33177  1.0000
  C   C124      1.0  0.68368  0.56921  0.32597  1.0000
  H   H69       1.0  0.71523  0.47573  0.33235  1.0000
  H   H70       1.0  0.69348  0.59765  0.32426  1.0000
  H   H71       1.0  0.60032  0.51751  0.31599  1.0000
  C   C125      1.0  0.35824  0.43659  0.31717  1.0000
  C   C126      1.0  0.37178  0.47572  0.31873  1.0000
  C   C127      1.0  0.34593  0.50775  0.32404  1.0000
  C   C128      1.0  0.30545  0.50012  0.33088  1.0000
  C   C129      1.0  0.29064  0.46114  0.32889  1.0000
  C   C130      1.0  0.31761  0.42970  0.32242  1.0000
  H   H72       1.0  0.28657  0.52332  0.33115  1.0000
  H   H73       1.0  0.30763  0.40133  0.31989  1.0000
  H   H74       1.0  0.40127  0.48103  0.31489  1.0000
  N   N19       1.0  0.96735  0.49730  0.37936  1.0000
  C   C131      1.0  0.99367  0.46768  0.38394  1.0000
  H   H75       1.0  0.98760  0.44419  0.42421  1.0000
  N   N20       1.0  0.50336  0.96593  0.38028  1.0000
  C   C132      1.0  0.53339  0.99203  0.38463  1.0000
  H   H76       1.0  0.55672  0.98571  0.42473  1.0000
  C   C133      1.0  0.06906  0.33092  0.35172  1.0000
  C   C134      1.0  0.04882  0.25075  0.34728  1.0000
  N   N21       1.0  0.07809  0.26481  0.40002  1.0000
  C   C135      1.0  0.08928  0.30310  0.40548  1.0000
  C   C136      1.0  0.11809  0.31299  0.46694  1.0000
  C   C137      1.0  0.10542  0.32687  0.55422  1.0000
  H   H77       1.0  0.13021  0.33893  0.59145  1.0000
  H   H78       1.0  0.09266  0.30284  0.59311  1.0000
  H   H79       1.0  0.08377  0.35012  0.54741  1.0000
  O   O11       1.0  0.14707  0.29209  0.46761  1.0000
  C   C138      1.0  0.93242  0.66999  0.35454  1.0000
  C   C139      1.0  0.95269  0.75013  0.34950  1.0000
  N   N22       1.0  0.92389  0.73607  0.40360  1.0000
  C   C140      1.0  0.91272  0.69778  0.40936  1.0000
  C   C141      1.0  0.88461  0.68781  0.47237  1.0000
  C   C142      1.0  0.89832  0.67446  0.55925  1.0000
  H   H80       1.0  0.87405  0.66230  0.59805  1.0000
  H   H81       1.0  0.91120  0.69880  0.59691  1.0000
  H   H82       1.0  0.92016  0.65143  0.55180  1.0000
  O   O12       1.0  0.85546  0.70846  0.47412  1.0000
  C   C143      1.0  0.67054  0.06797  0.35377  1.0000
  C   C144      1.0  0.75028  0.04786  0.34924  1.0000
  N   N23       1.0  0.73647  0.07730  0.40181  1.0000
  C   C145      1.0  0.69844  0.08839  0.40727  1.0000
  C   C146      1.0  0.68930  0.11723  0.46911  1.0000
  C   C147      1.0  0.66917  0.10766  0.55190  1.0000
  H   H83       1.0  0.64665  0.12952  0.56464  1.0000
  H   H84       1.0  0.68976  0.10781  0.60789  1.0000
  H   H85       1.0  0.65510  0.07884  0.54924  1.0000
  O   O13       1.0  0.70845  0.14764  0.46728  1.0000
  C   C148      1.0  0.33082  0.93143  0.35368  1.0000
  C   C149      1.0  0.25131  0.95250  0.34909  1.0000
  N   N24       1.0  0.26482  0.92306  0.40207  1.0000
  C   C150      1.0  0.30274  0.91149  0.40759  1.0000
  C   C151      1.0  0.31207  0.88274  0.46967  1.0000
  C   C152      1.0  0.32528  0.89580  0.55729  1.0000
  H   H86       1.0  0.33692  0.87108  0.59536  1.0000
  H   H87       1.0  0.30111  0.90858  0.59505  1.0000
  H   H88       1.0  0.34854  0.91769  0.55105  1.0000
  O   O14       1.0  0.29111  0.85355  0.46994  1.0000
  N   N25       1.0  0.46376  0.81737  0.37548  1.0000
  C   C153      1.0  0.47551  0.77938  0.37989  1.0000
  H   H89       1.0  0.49812  0.77214  0.42137  1.0000
  N   N26       1.0  0.53779  0.18169  0.37370  1.0000
  C   C154      1.0  0.52615  0.21972  0.37794  1.0000
  H   H90       1.0  0.50372  0.22709  0.41981  1.0000
  N   N27       1.0  0.81825  0.53623  0.37461  1.0000
  C   C155      1.0  0.78019  0.52481  0.37902  1.0000
  H   H91       1.0  0.77254  0.50221  0.42061  1.0000
  N   N28       1.0  0.18341  0.46347  0.37249  1.0000
  C   C156      1.0  0.22161  0.47430  0.37748  1.0000
  H   H92       1.0  0.22964  0.49606  0.42099  1.0000
  C   C157      1.0  0.09395  0.11353  0.37243  1.0000
  C   C158      1.0  0.14175  0.04725  0.36529  1.0000
  N   N29       1.0  0.11815  0.05460  0.43659  1.0000
  C   C159      1.0  0.09520  0.08671  0.44543  1.0000
  C   C160      1.0  0.07242  0.08963  0.52202  1.0000
  C   C161      1.0  0.07593  0.12241  0.58348  1.0000
  H   H93       1.0  0.09561  0.14520  0.55823  1.0000
  H   H94       1.0  0.08716  0.11227  0.64800  1.0000
  H   H95       1.0  0.04723  0.13543  0.59389  1.0000
  O   O15       1.0  0.05384  0.06083  0.54684  1.0000
  C   C162      1.0  0.90777  0.88739  0.37498  1.0000
  C   C163      1.0  0.86032  0.95386  0.36740  1.0000
  N   N30       1.0  0.88433  0.94681  0.43810  1.0000
  C   C164      1.0  0.90716  0.91464  0.44719  1.0000
  C   C165      1.0  0.93048  0.91218  0.52299  1.0000
  C   C166      1.0  0.92802  0.87949  0.58492  1.0000
  H   H96       1.0  0.90807  0.85659  0.56138  1.0000
  H   H97       1.0  0.91769  0.88970  0.65019  1.0000
  H   H98       1.0  0.95692  0.86660  0.59323  1.0000
  O   O16       1.0  0.94951  0.94101  0.54577  1.0000
  C   C167      1.0  0.88734  0.09358  0.37370  1.0000
  C   C168      1.0  0.95469  0.14010  0.36506  1.0000
  N   N31       1.0  0.94689  0.11680  0.43686  1.0000
  C   C169      1.0  0.91424  0.09448  0.44639  1.0000
  C   C170      1.0  0.91096  0.07184  0.52330  1.0000
  C   C171      1.0  0.87811  0.07502  0.58411  1.0000
  H   H99       1.0  0.85603  0.09543  0.55957  1.0000
  H   H100      1.0  0.88816  0.08536  0.64955  1.0000
  H   H101      1.0  0.86443  0.04625  0.59234  1.0000
  O   O17       1.0  0.93886  0.05195  0.54664  1.0000
  C   C172      1.0  0.11411  0.90763  0.37335  1.0000
  C   C173      1.0  0.04691  0.86076  0.36561  1.0000
  N   N32       1.0  0.05463  0.88443  0.43684  1.0000
  C   C174      1.0  0.08715  0.90696  0.44591  1.0000
  C   C175      1.0  0.09039  0.92996  0.52231  1.0000
  C   C176      1.0  0.12305  0.92663  0.58363  1.0000
  H   H102      1.0  0.14533  0.90645  0.55903  1.0000
  H   H103      1.0  0.11285  0.91595  0.64869  1.0000
  H   H104      1.0  0.13656  0.95543  0.59274  1.0000
  O   O18       1.0  0.06218  0.94924  0.54631  1.0000
  N   N33       1.0  0.38563  0.60556  0.37995  1.0000
  C   C177      1.0  0.36075  0.57437  0.38475  1.0000
  H   H105      1.0  0.34515  0.56965  0.44226  1.0000
  N   N34       1.0  0.61582  0.39309  0.37891  1.0000
  C   C178      1.0  0.64069  0.42426  0.38456  1.0000
  H   H106      1.0  0.65632  0.42869  0.44215  1.0000
  N   N35       1.0  0.60777  0.61593  0.38204  1.0000
  C   C179      1.0  0.57665  0.64053  0.38745  1.0000
  H   H107      1.0  0.57158  0.65536  0.44591  1.0000
  N   N36       1.0  0.39359  0.38266  0.37902  1.0000
  C   C180      1.0  0.42473  0.35808  0.38424  1.0000
  H   H108      1.0  0.42991  0.34326  0.44265  1.0000
