data_image0
_chemical_formula_structural       CNCOCH3NC2OCH3NC2OCH3NC2OCH3CNCOCH3CNCOCH3CNCOCH3CNCOCH3NC2OCH3NC2OCH3CNCOCH3CNCOCH3NC2OCH3NC2OCH3CNCOCH3CNCOCH3NC2OCH3NC2OCH3CNCOCH3CNCOCH3NC2OCH3NC2OCH3NC2OCH3CNCOCH3C6H3C6H3C6H3C6H3C6H3C6H3C6H3C6H3C6H3C6H3C6H3C6H3C6H3C6H3C6H3C6H3NC2OCH3CNCOCH3CNCOCH3CNCOCH3NC2OCH3NC2OCH3NC2OCH3NC2OCH3CNCOCH3CNCOCH3NC2OCH3NC2OCH3CNCOCH3CNCOCH3NC2OCH3NC2OCH3CNCOCH3CNCOCH3NC2OCH3NC2OCH3CNCOCH3CNCOCH3CNCOCH3NC2OCH3
_chemical_formula_sum              "C240 N48 O48 H192"
_cell_length_a       54.676
_cell_length_b       28.1897
_cell_length_c       14.8403
_cell_angle_alpha    90
_cell_angle_beta     90
_cell_angle_gamma    90

_space_group_name_H-M_alt    "P 1"
_space_group_IT_number       1

loop_
  _space_group_symop_operation_xyz
  'x, y, z'

loop_
  _atom_site_type_symbol
  _atom_site_label
  _atom_site_symmetry_multiplicity
  _atom_site_fract_x
  _atom_site_fract_y
  _atom_site_fract_z
  _atom_site_occupancy
  C   C1        1.0  0.49251  0.46182  0.33399  1.0000
  N   N1        1.0  0.50459  0.53355  0.26127  1.0000
  C   C2        1.0  0.49165  0.49225  0.25838  1.0000
  O   O1        1.0  0.48066  0.47836  0.17989  1.0000
  C   C3        1.0  0.45990  0.50680  0.15530  1.0000
  H   H1        1.0  0.45230  0.49242  0.09312  1.0000
  H   H2        1.0  0.46517  0.54363  0.14287  1.0000
  H   H3        1.0  0.44572  0.50558  0.20716  1.0000
  N   N2        1.0  0.00465  0.97605  0.28227  1.0000
  C   C4        1.0  0.99229  0.01787  0.27848  1.0000
  C   C5        1.0  0.99251  0.04770  0.35501  1.0000
  O   O2        1.0  0.98005  0.02962  0.20130  1.0000
  C   C6        1.0  0.99569  0.05075  0.13440  1.0000
  H   H4        1.0  0.98453  0.05929  0.07569  1.0000
  H   H5        1.0  0.01008  0.02624  0.11310  1.0000
  H   H6        1.0  0.00396  0.08362  0.15894  1.0000
  N   N3        1.0  0.37870  0.35902  0.29583  1.0000
  C   C7        1.0  0.40232  0.37464  0.29066  1.0000
  C   C8        1.0  0.42050  0.35216  0.34383  1.0000
  O   O3        1.0  0.40761  0.41039  0.23163  1.0000
  C   C9        1.0  0.41232  0.39372  0.14168  1.0000
  H   H7        1.0  0.41620  0.42444  0.09939  1.0000
  H   H8        1.0  0.39643  0.37538  0.11362  1.0000
  H   H9        1.0  0.42822  0.37022  0.13974  1.0000
  N   N4        1.0  0.63221  0.64983  0.30162  1.0000
  C   C10       1.0  0.60862  0.63406  0.29670  1.0000
  C   C11       1.0  0.59042  0.65665  0.34954  1.0000
  O   O4        1.0  0.60332  0.59820  0.23791  1.0000
  C   C12       1.0  0.59892  0.61460  0.14757  1.0000
  H   H10       1.0  0.59473  0.58384  0.10579  1.0000
  H   H11       1.0  0.61506  0.63210  0.11953  1.0000
  H   H12       1.0  0.58330  0.63880  0.14484  1.0000
  C   C13       1.0  0.13992  0.82277  0.33876  1.0000
  N   N5        1.0  0.09835  0.81656  0.28990  1.0000
  C   C14       1.0  0.12188  0.80152  0.28327  1.0000
  O   O5        1.0  0.12674  0.76564  0.22396  1.0000
  C   C15       1.0  0.13244  0.78248  0.13494  1.0000
  H   H13       1.0  0.13610  0.75174  0.09242  1.0000
  H   H14       1.0  0.14876  0.80490  0.13512  1.0000
  H   H15       1.0  0.11710  0.80204  0.10573  1.0000
  C   C16       1.0  0.87074  0.18629  0.33344  1.0000
  N   N6        1.0  0.91236  0.19258  0.28485  1.0000
  C   C17       1.0  0.88883  0.20770  0.27834  1.0000
  O   O6        1.0  0.88403  0.24391  0.21972  1.0000
  C   C18       1.0  0.87824  0.22757  0.13045  1.0000
  H   H16       1.0  0.87465  0.25855  0.08849  1.0000
  H   H17       1.0  0.86186  0.20530  0.13035  1.0000
  H   H18       1.0  0.89352  0.20799  0.10079  1.0000
  C   C19       1.0  0.53539  0.21085  0.35736  1.0000
  N   N7        1.0  0.52372  0.28616  0.29794  1.0000
  C   C20       1.0  0.53912  0.24819  0.29522  1.0000
  O   O7        1.0  0.55659  0.24608  0.22940  1.0000
  C   C21       1.0  0.54723  0.23017  0.14397  1.0000
  H   H19       1.0  0.56239  0.22917  0.09628  1.0000
  H   H20       1.0  0.53338  0.25450  0.11772  1.0000
  H   H21       1.0  0.53954  0.19446  0.14880  1.0000
  C   C22       1.0  0.47519  0.79829  0.35505  1.0000
  N   N8        1.0  0.48709  0.72349  0.29377  1.0000
  C   C23       1.0  0.47152  0.76124  0.29221  1.0000
  O   O8        1.0  0.45386  0.76334  0.22710  1.0000
  C   C24       1.0  0.46288  0.77983  0.14160  1.0000
  H   H22       1.0  0.44757  0.78076  0.09455  1.0000
  H   H23       1.0  0.47678  0.75590  0.11438  1.0000
  H   H24       1.0  0.47040  0.81567  0.14675  1.0000
  N   N9        1.0  0.99403  0.71603  0.27086  1.0000
  C   C25       1.0  0.00890  0.75437  0.26614  1.0000
  C   C26       1.0  0.00588  0.79076  0.33071  1.0000
  O   O9        1.0  0.02714  0.75436  0.20318  1.0000
  C   C27       1.0  0.01955  0.77432  0.11854  1.0000
  H   H25       1.0  0.03508  0.77305  0.07253  1.0000
  H   H26       1.0  0.01400  0.81139  0.12604  1.0000
  H   H27       1.0  0.00458  0.75396  0.08867  1.0000
  N   N10       1.0  0.01685  0.29289  0.27367  1.0000
  C   C28       1.0  0.00184  0.25474  0.26998  1.0000
  C   C29       1.0  0.00469  0.21876  0.33557  1.0000
  O   O10       1.0  0.98367  0.25468  0.20671  1.0000
  C   C30       1.0  0.99114  0.23352  0.12298  1.0000
  H   H28       1.0  0.97566  0.23486  0.07673  1.0000
  H   H29       1.0  0.99633  0.19636  0.13199  1.0000
  H   H30       1.0  0.00633  0.25302  0.09252  1.0000
  C   C31       1.0  0.31074  0.19129  0.34923  1.0000
  N   N11       1.0  0.29267  0.11763  0.30133  1.0000
  C   C32       1.0  0.29362  0.16604  0.29564  1.0000
  O   O11       1.0  0.27884  0.18827  0.23456  1.0000
  C   C33       1.0  0.28910  0.18978  0.14535  1.0000
  H   H31       1.0  0.27620  0.20821  0.10162  1.0000
  H   H32       1.0  0.29193  0.15410  0.11838  1.0000
  H   H33       1.0  0.30639  0.20927  0.14426  1.0000
  C   C34       1.0  0.70009  0.81793  0.35223  1.0000
  N   N12       1.0  0.71797  0.89157  0.30323  1.0000
  C   C35       1.0  0.71703  0.84314  0.29780  1.0000
  O   O12       1.0  0.73163  0.82087  0.23620  1.0000
  C   C36       1.0  0.72112  0.81933  0.14739  1.0000
  H   H34       1.0  0.73390  0.80085  0.10321  1.0000
  H   H35       1.0  0.71824  0.85500  0.12046  1.0000
  H   H36       1.0  0.70382  0.79987  0.14699  1.0000
  N   N13       1.0  0.18619  0.66446  0.28228  1.0000
  C   C37       1.0  0.18765  0.61653  0.27420  1.0000
  C   C38       1.0  0.20392  0.59095  0.33074  1.0000
  O   O13       1.0  0.17213  0.59506  0.21459  1.0000
  C   C39       1.0  0.18264  0.58963  0.12640  1.0000
  H   H37       1.0  0.16912  0.57242  0.08342  1.0000
  H   H38       1.0  0.19896  0.56724  0.12822  1.0000
  H   H39       1.0  0.18719  0.62399  0.09660  1.0000
  N   N14       1.0  0.82433  0.34479  0.27879  1.0000
  C   C40       1.0  0.82285  0.39273  0.27095  1.0000
  C   C41       1.0  0.80675  0.41827  0.32821  1.0000
  O   O14       1.0  0.83820  0.41425  0.21080  1.0000
  C   C42       1.0  0.82744  0.41972  0.12303  1.0000
  H   H40       1.0  0.84083  0.43698  0.07957  1.0000
  H   H41       1.0  0.81110  0.44207  0.12553  1.0000
  H   H42       1.0  0.82282  0.38536  0.09334  1.0000
  C   C43       1.0  0.24434  0.42962  0.34478  1.0000
  N   N15       1.0  0.28352  0.40070  0.29636  1.0000
  C   C44       1.0  0.26600  0.43524  0.29330  1.0000
  O   O15       1.0  0.26984  0.47337  0.23830  1.0000
  C   C45       1.0  0.26229  0.46508  0.14681  1.0000
  H   H43       1.0  0.26589  0.49723  0.10818  1.0000
  H   H44       1.0  0.24271  0.45744  0.14267  1.0000
  H   H45       1.0  0.27262  0.43601  0.11630  1.0000
  C   C46       1.0  0.76655  0.57969  0.34494  1.0000
  N   N16       1.0  0.72727  0.60874  0.29776  1.0000
  C   C47       1.0  0.74480  0.57423  0.29387  1.0000
  O   O16       1.0  0.74089  0.53631  0.23841  1.0000
  C   C48       1.0  0.74836  0.54493  0.14694  1.0000
  H   H46       1.0  0.74469  0.51294  0.10792  1.0000
  H   H47       1.0  0.76794  0.55252  0.14266  1.0000
  H   H48       1.0  0.73803  0.57415  0.11694  1.0000
  N   N17       1.0  0.26761  0.88913  0.29346  1.0000
  C   C49       1.0  0.25012  0.85494  0.28931  1.0000
  C   C50       1.0  0.22878  0.85988  0.34268  1.0000
  O   O17       1.0  0.25434  0.81711  0.23386  1.0000
  C   C51       1.0  0.24600  0.82490  0.14317  1.0000
  H   H49       1.0  0.25001  0.79310  0.10403  1.0000
  H   H50       1.0  0.25550  0.85480  0.11189  1.0000
  H   H51       1.0  0.22626  0.83099  0.14093  1.0000
  N   N18       1.0  0.74294  0.12003  0.29286  1.0000
  C   C52       1.0  0.76043  0.15419  0.28794  1.0000
  C   C53       1.0  0.78187  0.14938  0.34079  1.0000
  O   O18       1.0  0.75614  0.19188  0.23221  1.0000
  C   C54       1.0  0.76434  0.18384  0.14143  1.0000
  H   H52       1.0  0.76029  0.21554  0.10207  1.0000
  H   H53       1.0  0.75479  0.15387  0.11063  1.0000
  H   H54       1.0  0.78408  0.17773  0.13886  1.0000
  C   C55       1.0  0.10708  0.40894  0.36069  1.0000
  N   N19       1.0  0.14797  0.41101  0.30365  1.0000
  C   C56       1.0  0.12513  0.39159  0.30074  1.0000
  O   O19       1.0  0.12008  0.35829  0.23642  1.0000
  C   C57       1.0  0.11432  0.37851  0.14998  1.0000
  H   H55       1.0  0.11038  0.34952  0.10356  1.0000
  H   H56       1.0  0.12972  0.39874  0.12298  1.0000
  H   H57       1.0  0.09816  0.40127  0.15359  1.0000
  C   C58       1.0  0.90389  0.59990  0.35815  1.0000
  N   N20       1.0  0.86285  0.59848  0.30251  1.0000
  C   C59       1.0  0.88568  0.61789  0.29950  1.0000
  O   O20       1.0  0.89056  0.65188  0.23630  1.0000
  C   C60       1.0  0.89627  0.63258  0.14906  1.0000
  H   H58       1.0  0.90006  0.66207  0.10362  1.0000
  H   H59       1.0  0.88088  0.61244  0.12163  1.0000
  H   H60       1.0  0.91251  0.60997  0.15156  1.0000
  N   N21       1.0  0.39659  0.94351  0.26911  1.0000
  C   C61       1.0  0.37373  0.96183  0.26403  1.0000
  C   C62       1.0  0.35597  0.94603  0.32649  1.0000
  O   O21       1.0  0.36946  0.99702  0.20265  1.0000
  C   C63       1.0  0.36172  0.97906  0.11660  1.0000
  H   H61       1.0  0.35872  0.00922  0.07197  1.0000
  H   H62       1.0  0.34454  0.95941  0.12210  1.0000
  H   H63       1.0  0.37571  0.95637  0.08633  1.0000
  N   N22       1.0  0.61387  0.06495  0.27234  1.0000
  C   C64       1.0  0.63672  0.04659  0.26714  1.0000
  C   C65       1.0  0.65463  0.06296  0.32850  1.0000
  O   O22       1.0  0.64082  0.01081  0.20685  1.0000
  C   C66       1.0  0.64840  0.02789  0.11996  1.0000
  H   H64       1.0  0.65125  0.99728  0.07631  1.0000
  H   H65       1.0  0.66562  0.04749  0.12426  1.0000
  H   H66       1.0  0.63437  0.05036  0.08933  1.0000
  N   N23       1.0  0.00340  0.46718  0.29408  1.0000
  C   C67       1.0  0.98600  0.50131  0.28908  1.0000
  C   C68       1.0  0.98797  0.54071  0.34744  1.0000
  O   O23       1.0  0.96747  0.49615  0.22797  1.0000
  C   C69       1.0  0.97359  0.51432  0.14026  1.0000
  H   H67       1.0  0.95787  0.50892  0.09623  1.0000
  H   H68       1.0  0.98920  0.49549  0.11126  1.0000
  H   H69       1.0  0.97752  0.55233  0.14262  1.0000
  C   C70       1.0  0.48789  0.96864  0.33724  1.0000
  N   N24       1.0  0.50336  0.04239  0.28381  1.0000
  C   C71       1.0  0.48603  0.00810  0.27865  1.0000
  O   O24       1.0  0.46777  0.01336  0.21653  1.0000
  C   C72       1.0  0.47407  0.99452  0.12950  1.0000
  H   H70       1.0  0.45854  0.00005  0.08462  1.0000
  H   H71       1.0  0.47774  0.95643  0.13285  1.0000
  H   H72       1.0  0.48991  0.01280  0.10088  1.0000
  C   C73       1.0  0.48862  0.32990  0.34997  1.0000
  C   C74       1.0  0.46297  0.32333  0.34879  1.0000
  C   C75       1.0  0.44632  0.36171  0.34114  1.0000
  C   C76       1.0  0.45638  0.40802  0.33388  1.0000
  C   C77       1.0  0.48203  0.41580  0.33546  1.0000
  C   C78       1.0  0.49785  0.37642  0.34290  1.0000
  H   H73       1.0  0.44495  0.43671  0.33195  1.0000
  H   H74       1.0  0.51641  0.38173  0.34467  1.0000
  H   H75       1.0  0.45628  0.28940  0.35127  1.0000
  C   C79       1.0  0.52234  0.67964  0.34495  1.0000
  C   C80       1.0  0.54800  0.68591  0.34858  1.0000
  C   C81       1.0  0.56460  0.64730  0.34521  1.0000
  C   C82       1.0  0.55449  0.60100  0.33931  1.0000
  C   C83       1.0  0.52887  0.59362  0.33330  1.0000
  C   C84       1.0  0.51310  0.63327  0.33455  1.0000
  H   H76       1.0  0.56585  0.57217  0.34052  1.0000
  H   H77       1.0  0.49453  0.62808  0.33371  1.0000
  H   H78       1.0  0.55478  0.71975  0.35162  1.0000
  C   C85       1.0  0.02214  0.82986  0.33819  1.0000
  C   C86       1.0  0.04780  0.82329  0.33933  1.0000
  C   C87       1.0  0.06444  0.86168  0.34707  1.0000
  C   C88       1.0  0.05437  0.90798  0.35442  1.0000
  C   C89       1.0  0.02873  0.91576  0.35267  1.0000
  C   C90       1.0  0.01291  0.87637  0.34523  1.0000
  H   H79       1.0  0.06581  0.93668  0.35622  1.0000
  H   H80       1.0  0.99436  0.88168  0.34344  1.0000
  H   H81       1.0  0.05448  0.78937  0.33691  1.0000
  C   C91       1.0  0.98843  0.17960  0.34317  1.0000
  C   C92       1.0  0.96276  0.18588  0.33954  1.0000
  C   C93       1.0  0.94615  0.14729  0.34297  1.0000
  C   C94       1.0  0.95626  0.10099  0.34883  1.0000
  C   C95       1.0  0.98188  0.09358  0.35475  1.0000
  C   C96       1.0  0.99766  0.13322  0.35349  1.0000
  H   H82       1.0  0.94489  0.07216  0.34769  1.0000
  H   H83       1.0  0.01623  0.12803  0.35443  1.0000
  H   H84       1.0  0.95600  0.21973  0.33661  1.0000
  C   C97       1.0  0.34583  0.30727  0.34623  1.0000
  C   C98       1.0  0.33986  0.25831  0.34732  1.0000
  C   C99       1.0  0.31545  0.24145  0.34522  1.0000
  C   C100      1.0  0.29656  0.27583  0.34260  1.0000
  C   C101      1.0  0.30138  0.32541  0.34276  1.0000
  C   C102      1.0  0.32622  0.34012  0.34202  1.0000
  H   H85       1.0  0.27883  0.26432  0.34161  1.0000
  H   H86       1.0  0.33014  0.37564  0.34337  1.0000
  H   H87       1.0  0.35377  0.23399  0.34636  1.0000
  C   C103      1.0  0.66503  0.70190  0.35090  1.0000
  C   C104      1.0  0.67098  0.75087  0.35164  1.0000
  C   C105      1.0  0.69538  0.76776  0.34858  1.0000
  C   C106      1.0  0.71428  0.73341  0.34528  1.0000
  C   C107      1.0  0.70947  0.68382  0.34554  1.0000
  C   C108      1.0  0.68464  0.66909  0.34586  1.0000
  H   H88       1.0  0.73200  0.74493  0.34360  1.0000
  H   H89       1.0  0.68075  0.63355  0.34728  1.0000
  H   H90       1.0  0.65708  0.77518  0.35111  1.0000
  C   C109      1.0  0.16494  0.80725  0.34199  1.0000
  C   C110      1.0  0.17091  0.75829  0.34092  1.0000
  C   C111      1.0  0.19532  0.74144  0.34294  1.0000
  C   C112      1.0  0.21421  0.77582  0.34557  1.0000
  C   C113      1.0  0.20938  0.82540  0.34546  1.0000
  C   C114      1.0  0.18454  0.84010  0.34620  1.0000
  H   H91       1.0  0.23193  0.76431  0.34656  1.0000
  H   H92       1.0  0.18062  0.87563  0.34486  1.0000
  H   H93       1.0  0.15700  0.73398  0.34185  1.0000
  C   C115      1.0  0.84573  0.20190  0.33727  1.0000
  C   C116      1.0  0.83978  0.25087  0.33652  1.0000
  C   C117      1.0  0.81537  0.26775  0.33957  1.0000
  C   C118      1.0  0.79648  0.23341  0.34292  1.0000
  C   C119      1.0  0.80128  0.18382  0.34265  1.0000
  C   C120      1.0  0.82612  0.16909  0.34226  1.0000
  H   H94       1.0  0.77876  0.24492  0.34461  1.0000
  H   H95       1.0  0.83001  0.13355  0.34092  1.0000
  H   H96       1.0  0.85368  0.27518  0.33706  1.0000
  C   C121      1.0  0.03955  0.43011  0.35012  1.0000
  C   C122      1.0  0.03071  0.38344  0.34147  1.0000
  C   C123      1.0  0.04655  0.34383  0.33974  1.0000
  C   C124      1.0  0.07208  0.35181  0.34714  1.0000
  C   C125      1.0  0.08164  0.39843  0.35497  1.0000
  C   C126      1.0  0.06503  0.43695  0.35590  1.0000
  H   H97       1.0  0.08377  0.32347  0.34661  1.0000
  H   H98       1.0  0.07164  0.47094  0.35747  1.0000
  H   H99       1.0  0.01216  0.37816  0.33936  1.0000
  C   C127      1.0  0.97141  0.57908  0.34686  1.0000
  C   C128      1.0  0.98035  0.62571  0.34056  1.0000
  C   C129      1.0  0.96446  0.66521  0.33811  1.0000
  C   C130      1.0  0.93890  0.65713  0.34462  1.0000
  C   C131      1.0  0.92934  0.61047  0.35217  1.0000
  C   C132      1.0  0.94598  0.57198  0.35261  1.0000
  H   H100      1.0  0.92721  0.68547  0.34400  1.0000
  H   H101      1.0  0.93955  0.53792  0.35750  1.0000
  H   H102      1.0  0.99891  0.63082  0.33704  1.0000
  C   C133      1.0  0.47122  0.93015  0.33817  1.0000
  C   C134      1.0  0.48005  0.88348  0.34688  1.0000
  C   C135      1.0  0.46421  0.84387  0.34856  1.0000
  C   C136      1.0  0.43868  0.85186  0.34115  1.0000
  C   C137      1.0  0.42912  0.89848  0.33336  1.0000
  C   C138      1.0  0.44574  0.93699  0.33240  1.0000
  H   H103      1.0  0.42700  0.82351  0.34166  1.0000
  H   H104      1.0  0.43914  0.97099  0.33083  1.0000
  H   H105      1.0  0.49861  0.87819  0.34889  1.0000
  C   C139      1.0  0.53936  0.07912  0.34133  1.0000
  C   C140      1.0  0.53041  0.12575  0.34759  1.0000
  C   C141      1.0  0.54630  0.16525  0.35003  1.0000
  C   C142      1.0  0.57185  0.15718  0.34348  1.0000
  C   C143      1.0  0.58142  0.11052  0.33596  1.0000
  C   C144      1.0  0.56479  0.07202  0.33554  1.0000
  H   H106      1.0  0.58354  0.18552  0.34408  1.0000
  H   H107      1.0  0.57122  0.03797  0.33065  1.0000
  H   H108      1.0  0.51185  0.13085  0.35115  1.0000
  C   C145      1.0  0.17826  0.46746  0.35363  1.0000
  C   C146      1.0  0.18054  0.51721  0.34726  1.0000
  C   C147      1.0  0.20345  0.54009  0.33786  1.0000
  C   C148      1.0  0.22473  0.51108  0.33875  1.0000
  C   C149      1.0  0.22337  0.46061  0.34397  1.0000
  C   C150      1.0  0.19974  0.43989  0.34988  1.0000
  H   H109      1.0  0.24146  0.52715  0.33537  1.0000
  H   H110      1.0  0.19800  0.40374  0.35319  1.0000
  H   H111      1.0  0.16496  0.53734  0.34928  1.0000
  C   C151      1.0  0.83263  0.54159  0.35160  1.0000
  C   C152      1.0  0.83026  0.49187  0.34456  1.0000
  C   C153      1.0  0.80731  0.46911  0.33572  1.0000
  C   C154      1.0  0.78607  0.49821  0.33759  1.0000
  C   C155      1.0  0.78749  0.54865  0.34331  1.0000
  C   C156      1.0  0.81115  0.56926  0.34887  1.0000
  H   H112      1.0  0.76931  0.48221  0.33458  1.0000
  H   H113      1.0  0.81293  0.60539  0.35263  1.0000
  H   H114      1.0  0.84582  0.47166  0.34575  1.0000
  C   C157      1.0  0.33251  0.96750  0.33464  1.0000
  C   C158      1.0  0.33021  0.01725  0.34100  1.0000
  C   C159      1.0  0.30730  0.04011  0.35037  1.0000
  C   C160      1.0  0.28602  0.01108  0.34952  1.0000
  C   C161      1.0  0.28739  0.96062  0.34429  1.0000
  C   C162      1.0  0.31102  0.93992  0.33837  1.0000
  H   H115      1.0  0.26929  0.02714  0.35292  1.0000
  H   H116      1.0  0.31277  0.90376  0.33507  1.0000
  H   H117      1.0  0.34579  0.03739  0.33902  1.0000
  C   C163      1.0  0.67813  0.04160  0.33655  1.0000
  C   C164      1.0  0.68049  0.99187  0.34356  1.0000
  C   C165      1.0  0.70344  0.96912  0.35240  1.0000
  C   C166      1.0  0.72468  0.99821  0.35061  1.0000
  C   C167      1.0  0.72326  0.04866  0.34491  1.0000
  C   C168      1.0  0.69960  0.06926  0.33930  1.0000
  H   H118      1.0  0.74144  0.98221  0.35366  1.0000
  H   H119      1.0  0.69782  0.10540  0.33558  1.0000
  H   H120      1.0  0.66493  0.97167  0.34235  1.0000
  N   N25       1.0  0.50606  0.47615  0.40595  1.0000
  C   C169      1.0  0.51841  0.51798  0.40973  1.0000
  C   C170      1.0  0.51822  0.54775  0.33313  1.0000
  O   O25       1.0  0.53061  0.52978  0.48698  1.0000
  C   C171      1.0  0.51493  0.55093  0.55373  1.0000
  H   H121      1.0  0.52606  0.55952  0.61249  1.0000
  H   H122      1.0  0.50055  0.52642  0.57498  1.0000
  H   H123      1.0  0.50666  0.58377  0.52907  1.0000
  C   C172      1.0  0.01824  0.96178  0.35415  1.0000
  N   N26       1.0  0.00621  0.03356  0.42676  1.0000
  C   C173      1.0  0.01917  0.99227  0.42965  1.0000
  O   O26       1.0  0.03022  0.97847  0.50805  1.0000
  C   C174      1.0  0.05096  0.00700  0.53244  1.0000
  H   H124      1.0  0.05862  0.99267  0.59456  1.0000
  H   H125      1.0  0.04566  0.04381  0.54487  1.0000
  H   H126      1.0  0.06511  0.00581  0.48045  1.0000
  C   C175      1.0  0.37085  0.32278  0.34947  1.0000
  N   N27       1.0  0.41242  0.31659  0.39832  1.0000
  C   C176      1.0  0.38889  0.30154  0.40495  1.0000
  O   O27       1.0  0.38403  0.26566  0.46426  1.0000
  C   C177      1.0  0.37833  0.28248  0.55328  1.0000
  H   H127      1.0  0.37468  0.25174  0.59580  1.0000
  H   H128      1.0  0.36201  0.30491  0.55310  1.0000
  H   H129      1.0  0.39367  0.30205  0.58249  1.0000
  C   C178      1.0  0.64002  0.68630  0.35472  1.0000
  N   N28       1.0  0.59840  0.69258  0.40337  1.0000
  C   C179      1.0  0.62193  0.70770  0.40986  1.0000
  O   O28       1.0  0.62674  0.74391  0.46848  1.0000
  C   C180      1.0  0.63253  0.72756  0.55774  1.0000
  H   H130      1.0  0.63613  0.75853  0.59970  1.0000
  H   H131      1.0  0.64891  0.70530  0.55782  1.0000
  H   H132      1.0  0.61726  0.70798  0.58741  1.0000
  N   N29       1.0  0.13206  0.85900  0.39239  1.0000
  C   C181      1.0  0.10844  0.87462  0.39755  1.0000
  C   C182      1.0  0.09026  0.85213  0.34440  1.0000
  O   O29       1.0  0.10315  0.91037  0.45657  1.0000
  C   C183      1.0  0.09844  0.89372  0.54652  1.0000
  H   H133      1.0  0.09456  0.92443  0.58881  1.0000
  H   H134      1.0  0.11433  0.87538  0.57460  1.0000
  H   H135      1.0  0.08255  0.87020  0.54848  1.0000
  N   N30       1.0  0.87854  0.14981  0.38653  1.0000
  C   C184      1.0  0.90213  0.13405  0.39148  1.0000
  C   C185      1.0  0.92034  0.15667  0.33870  1.0000
  O   O30       1.0  0.90743  0.09818  0.45025  1.0000
  C   C186      1.0  0.91183  0.11457  0.54059  1.0000
  H   H136      1.0  0.91602  0.08379  0.58236  1.0000
  H   H137      1.0  0.89569  0.13206  0.56865  1.0000
  H   H138      1.0  0.92744  0.13876  0.54334  1.0000
  N   N31       1.0  0.51674  0.21606  0.41726  1.0000
  C   C187      1.0  0.50187  0.25440  0.42199  1.0000
  C   C188      1.0  0.50489  0.29080  0.35744  1.0000
  O   O31       1.0  0.48363  0.25440  0.48496  1.0000
  C   C189      1.0  0.49122  0.27436  0.56960  1.0000
  H   H139      1.0  0.47569  0.27308  0.61562  1.0000
  H   H140      1.0  0.49677  0.31142  0.56210  1.0000
  H   H141      1.0  0.50619  0.25398  0.59946  1.0000
  N   N32       1.0  0.49391  0.79292  0.41457  1.0000
  C   C190      1.0  0.50893  0.75477  0.41822  1.0000
  C   C191      1.0  0.50607  0.71880  0.35261  1.0000
  O   O32       1.0  0.52710  0.75469  0.48148  1.0000
  C   C192      1.0  0.51963  0.73351  0.56520  1.0000
  H   H142      1.0  0.53511  0.73484  0.61144  1.0000
  H   H143      1.0  0.51444  0.69635  0.55615  1.0000
  H   H144      1.0  0.50444  0.75301  0.59567  1.0000
  C   C193      1.0  0.97537  0.71080  0.33073  1.0000
  N   N33       1.0  0.98705  0.78611  0.39019  1.0000
  C   C194      1.0  0.97164  0.74814  0.39289  1.0000
  O   O33       1.0  0.95418  0.74602  0.45872  1.0000
  C   C195      1.0  0.96353  0.73012  0.54415  1.0000
  H   H145      1.0  0.94837  0.72911  0.59184  1.0000
  H   H146      1.0  0.97738  0.75444  0.57041  1.0000
  H   H147      1.0  0.97122  0.69440  0.53931  1.0000
  C   C196      1.0  0.03557  0.29825  0.33319  1.0000
  N   N34       1.0  0.02368  0.22344  0.39441  1.0000
  C   C197      1.0  0.03924  0.26119  0.39601  1.0000
  O   O34       1.0  0.05690  0.26327  0.46112  1.0000
  C   C198      1.0  0.04788  0.27974  0.54664  1.0000
  H   H148      1.0  0.06319  0.28066  0.59369  1.0000
  H   H149      1.0  0.03398  0.25581  0.57383  1.0000
  H   H150      1.0  0.04036  0.31558  0.54152  1.0000
  N   N35       1.0  0.32455  0.16447  0.40597  1.0000
  C   C199      1.0  0.32308  0.11655  0.41410  1.0000
  C   C200      1.0  0.30680  0.09096  0.35759  1.0000
  O   O35       1.0  0.33858  0.09509  0.47377  1.0000
  C   C201      1.0  0.32806  0.08968  0.56194  1.0000
  H   H151      1.0  0.34157  0.07247  0.60497  1.0000
  H   H152      1.0  0.31173  0.06730  0.56009  1.0000
  H   H153      1.0  0.32350  0.12405  0.59169  1.0000
  N   N36       1.0  0.68642  0.84480  0.40936  1.0000
  C   C202      1.0  0.68790  0.89274  0.41719  1.0000
  C   C203      1.0  0.70400  0.91828  0.35994  1.0000
  O   O36       1.0  0.67254  0.91426  0.47731  1.0000
  C   C204      1.0  0.68329  0.91974  0.56510  1.0000
  H   H154      1.0  0.66990  0.93700  0.60852  1.0000
  H   H155      1.0  0.69962  0.94210  0.56261  1.0000
  H   H156      1.0  0.68791  0.88539  0.59481  1.0000
  C   C205      1.0  0.20003  0.69128  0.33893  1.0000
  N   N37       1.0  0.21809  0.61761  0.38687  1.0000
  C   C206      1.0  0.21716  0.66603  0.39250  1.0000
  O   O37       1.0  0.23196  0.68826  0.45348  1.0000
  C   C207      1.0  0.22174  0.68982  0.54273  1.0000
  H   H157      1.0  0.23466  0.70825  0.58638  1.0000
  H   H158      1.0  0.21891  0.65415  0.56977  1.0000
  H   H159      1.0  0.20445  0.70933  0.54388  1.0000
  C   C208      1.0  0.81067  0.31792  0.33594  1.0000
  N   N38       1.0  0.79279  0.39156  0.38496  1.0000
  C   C209      1.0  0.79373  0.34314  0.39039  1.0000
  O   O38       1.0  0.77914  0.32086  0.45201  1.0000
  C   C210      1.0  0.78965  0.31932  0.54081  1.0000
  H   H160      1.0  0.77688  0.30084  0.58501  1.0000
  H   H161      1.0  0.79254  0.35499  0.56774  1.0000
  H   H162      1.0  0.80695  0.29987  0.54118  1.0000
  N   N39       1.0  0.24316  0.38914  0.39481  1.0000
  C   C211      1.0  0.26065  0.35494  0.39892  1.0000
  C   C212      1.0  0.28199  0.35988  0.34554  1.0000
  O   O39       1.0  0.25643  0.31711  0.45436  1.0000
  C   C213      1.0  0.26477  0.32488  0.54505  1.0000
  H   H163      1.0  0.26077  0.29308  0.58418  1.0000
  H   H164      1.0  0.25527  0.35478  0.57635  1.0000
  H   H165      1.0  0.28451  0.33098  0.54729  1.0000
  N   N40       1.0  0.76781  0.62002  0.39538  1.0000
  C   C214      1.0  0.75032  0.65419  0.40028  1.0000
  C   C215      1.0  0.72888  0.64938  0.34740  1.0000
  O   O40       1.0  0.75462  0.69188  0.45601  1.0000
  C   C216      1.0  0.74641  0.68385  0.54678  1.0000
  H   H166      1.0  0.75046  0.71554  0.58615  1.0000
  H   H167      1.0  0.75596  0.65387  0.57760  1.0000
  H   H168      1.0  0.72667  0.67774  0.54934  1.0000
  C   C217      1.0  0.26643  0.92960  0.34352  1.0000
  N   N41       1.0  0.22724  0.90069  0.39186  1.0000
  C   C218      1.0  0.24476  0.93524  0.39494  1.0000
  O   O41       1.0  0.24092  0.97337  0.44994  1.0000
  C   C219      1.0  0.24846  0.96508  0.54144  1.0000
  H   H169      1.0  0.24485  0.99723  0.58006  1.0000
  H   H170      1.0  0.26804  0.95744  0.54559  1.0000
  H   H171      1.0  0.23813  0.93600  0.57194  1.0000
  C   C220      1.0  0.74420  0.07970  0.34332  1.0000
  N   N42       1.0  0.78349  0.10873  0.39043  1.0000
  C   C221      1.0  0.76596  0.07422  0.39434  1.0000
  O   O42       1.0  0.76988  0.03630  0.44977  1.0000
  C   C222      1.0  0.76242  0.04490  0.54126  1.0000
  H   H172      1.0  0.76608  0.01290  0.58026  1.0000
  H   H173      1.0  0.74284  0.05249  0.54556  1.0000
  H   H174      1.0  0.77275  0.07412  0.57125  1.0000
  N   N43       1.0  0.11418  0.44344  0.41924  1.0000
  C   C223      1.0  0.13705  0.46176  0.42432  1.0000
  C   C224      1.0  0.15480  0.44597  0.36182  1.0000
  O   O43       1.0  0.14132  0.49692  0.48572  1.0000
  C   C225      1.0  0.14907  0.47893  0.57175  1.0000
  H   H175      1.0  0.15207  0.50909  0.61641  1.0000
  H   H176      1.0  0.16625  0.45929  0.56620  1.0000
  H   H177      1.0  0.13509  0.45624  0.60201  1.0000
  N   N44       1.0  0.89689  0.56488  0.41573  1.0000
  C   C226      1.0  0.87403  0.54655  0.42096  1.0000
  C   C227      1.0  0.85613  0.56293  0.35960  1.0000
  O   O44       1.0  0.86993  0.51078  0.48126  1.0000
  C   C228      1.0  0.86237  0.52787  0.56815  1.0000
  H   H178      1.0  0.85951  0.49726  0.61181  1.0000
  H   H179      1.0  0.84515  0.54748  0.56386  1.0000
  H   H180      1.0  0.87640  0.55033  0.59877  1.0000
  C   C229      1.0  0.40368  0.90899  0.32763  1.0000
  N   N45       1.0  0.36279  0.91103  0.38460  1.0000
  C   C230      1.0  0.38562  0.89161  0.38751  1.0000
  O   O45       1.0  0.39067  0.85826  0.45177  1.0000
  C   C231      1.0  0.39642  0.87843  0.53826  1.0000
  H   H181      1.0  0.40035  0.84941  0.58464  1.0000
  H   H182      1.0  0.38101  0.89866  0.56528  1.0000
  H   H183      1.0  0.41258  0.90119  0.53473  1.0000
  C   C232      1.0  0.60687  0.09999  0.32988  1.0000
  N   N46       1.0  0.64791  0.09847  0.38567  1.0000
  C   C233      1.0  0.62507  0.11789  0.38866  1.0000
  O   O46       1.0  0.62019  0.15183  0.45193  1.0000
  C   C234      1.0  0.61447  0.13248  0.53912  1.0000
  H   H184      1.0  0.61067  0.16194  0.58463  1.0000
  H   H185      1.0  0.62985  0.11231  0.56653  1.0000
  H   H186      1.0  0.59823  0.10987  0.53654  1.0000
  C   C235      1.0  0.02289  0.46861  0.35101  1.0000
  N   N47       1.0  0.00741  0.54236  0.40441  1.0000
  C   C236      1.0  0.02473  0.50807  0.40959  1.0000
  O   O47       1.0  0.04299  0.51334  0.47171  1.0000
  C   C237      1.0  0.03669  0.49451  0.55874  1.0000
  H   H187      1.0  0.05222  0.50005  0.60364  1.0000
  H   H188      1.0  0.03302  0.45643  0.55542  1.0000
  H   H189      1.0  0.02085  0.51280  0.58735  1.0000
  N   N48       1.0  0.50738  0.96722  0.39416  1.0000
  C   C238      1.0  0.52478  0.00135  0.39914  1.0000
  C   C239      1.0  0.52280  0.04075  0.34077  1.0000
  O   O48       1.0  0.54330  0.99620  0.46023  1.0000
  C   C240      1.0  0.53719  0.01438  0.54795  1.0000
  H   H190      1.0  0.55292  0.00899  0.59197  1.0000
  H   H191      1.0  0.52158  0.99555  0.57696  1.0000
  H   H192      1.0  0.53326  0.05239  0.54557  1.0000
