data_image0
_chemical_formula_structural       C2NCHC2NCHC2NCHCNHCNHCNHCNCNCNC18H12CNCNCNC18H12CNCNCNC18H12CNCNCNC18H12CNHCNHCNHC2NCHC2NCHC2NCH
_chemical_formula_sum              "C108 N24 H60"
_cell_length_a       44.7071
_cell_length_b       44.7072
_cell_length_c       14.9955
_cell_angle_alpha    90
_cell_angle_beta     90
_cell_angle_gamma    120

_space_group_name_H-M_alt    "P 1"
_space_group_IT_number       1

loop_
  _space_group_symop_operation_xyz
  'x, y, z'

loop_
  _atom_site_type_symbol
  _atom_site_label
  _atom_site_symmetry_multiplicity
  _atom_site_fract_x
  _atom_site_fract_y
  _atom_site_fract_z
  _atom_site_occupancy
  C   C1        1.0  0.17476  0.08741  0.33209  1.0000
  C   C2        1.0  0.19388  0.09698  0.25203  1.0000
  N   N1        1.0  0.22890  0.11449  0.25650  1.0000
  C   C3        1.0  0.24643  0.12324  0.33506  1.0000
  H   H1        1.0  0.18196  0.09103  0.19120  1.0000
  C   C4        1.0  0.90086  0.08741  0.33209  1.0000
  C   C5        1.0  0.89128  0.09696  0.25203  1.0000
  N   N2        1.0  0.87376  0.11446  0.25650  1.0000
  C   C6        1.0  0.86501  0.12323  0.33506  1.0000
  H   H2        1.0  0.89723  0.09099  0.19120  1.0000
  C   C7        1.0  0.90086  0.81353  0.33209  1.0000
  C   C8        1.0  0.89131  0.79441  0.25203  1.0000
  N   N3        1.0  0.87380  0.75939  0.25651  1.0000
  C   C9        1.0  0.86503  0.74186  0.33506  1.0000
  H   H3        1.0  0.89727  0.80632  0.19120  1.0000
  C   C10       1.0  0.54475  0.13085  0.25254  1.0000
  N   N4        1.0  0.57591  0.13261  0.25659  1.0000
  H   H4        1.0  0.53603  0.13401  0.19222  1.0000
  C   C11       1.0  0.85729  0.41391  0.25267  1.0000
  N   N5        1.0  0.85552  0.44331  0.25688  1.0000
  H   H5        1.0  0.85401  0.40201  0.19232  1.0000
  C   C12       1.0  0.57433  0.44347  0.25255  1.0000
  N   N6        1.0  0.54495  0.41230  0.25686  1.0000
  H   H6        1.0  0.58621  0.45211  0.19219  1.0000
  C   C13       1.0  0.97434  0.96046  0.33426  1.0000
  N   N7        1.0  0.00944  0.97884  0.33423  1.0000
  C   C14       1.0  0.02782  0.01395  0.33426  1.0000
  N   N8        1.0  0.00945  0.03069  0.33423  1.0000
  C   C15       1.0  0.97433  0.01395  0.33426  1.0000
  N   N9        1.0  0.95760  0.97884  0.33423  1.0000
  C   C16       1.0  0.06469  0.03238  0.33396  1.0000
  C   C17       1.0  0.08368  0.01474  0.33373  1.0000
  C   C18       1.0  0.12002  0.03286  0.33315  1.0000
  C   C19       1.0  0.13845  0.06926  0.33266  1.0000
  C   C20       1.0  0.12002  0.08724  0.33314  1.0000
  C   C21       1.0  0.08368  0.06902  0.33373  1.0000
  C   C22       1.0  0.95590  0.92360  0.33397  1.0000
  C   C23       1.0  0.97354  0.90461  0.33373  1.0000
  C   C24       1.0  0.95542  0.86826  0.33315  1.0000
  C   C25       1.0  0.91902  0.84984  0.33266  1.0000
  C   C26       1.0  0.90104  0.86827  0.33315  1.0000
  C   C27       1.0  0.91927  0.90461  0.33373  1.0000
  C   C28       1.0  0.95590  0.03238  0.33396  1.0000
  C   C29       1.0  0.91927  0.01474  0.33373  1.0000
  C   C30       1.0  0.90104  0.03286  0.33314  1.0000
  C   C31       1.0  0.91902  0.06926  0.33265  1.0000
  C   C32       1.0  0.95542  0.08724  0.33315  1.0000
  C   C33       1.0  0.97354  0.06902  0.33374  1.0000
  H   H7        1.0  0.96901  0.85540  0.33293  1.0000
  H   H8        1.0  0.99994  0.91699  0.33391  1.0000
  H   H9        1.0  0.87460  0.85541  0.33294  1.0000
  H   H10       1.0  0.90525  0.91699  0.33393  1.0000
  H   H11       1.0  0.90525  0.98834  0.33391  1.0000
  H   H12       1.0  0.87460  0.01927  0.33293  1.0000
  H   H13       1.0  0.99994  0.08304  0.33393  1.0000
  H   H14       1.0  0.96900  0.11369  0.33295  1.0000
  H   H15       1.0  0.07130  0.08304  0.33391  1.0000
  H   H16       1.0  0.13289  0.11368  0.33293  1.0000
  H   H17       1.0  0.13288  0.01927  0.33295  1.0000
  H   H18       1.0  0.07130  0.98834  0.33393  1.0000
  C   C34       1.0  0.44677  0.19660  0.33379  1.0000
  N   N10       1.0  0.41167  0.17977  0.33370  1.0000
  C   C35       1.0  0.39339  0.19672  0.33343  1.0000
  N   N11       1.0  0.41167  0.23196  0.33323  1.0000
  C   C36       1.0  0.44677  0.25023  0.33319  1.0000
  N   N12       1.0  0.46312  0.23159  0.33350  1.0000
  C   C37       1.0  0.35651  0.17828  0.33357  1.0000
  C   C38       1.0  0.33750  0.14164  0.33375  1.0000
  C   C39       1.0  0.30117  0.12342  0.33417  1.0000
  C   C40       1.0  0.28274  0.14139  0.33452  1.0000
  C   C41       1.0  0.30117  0.17780  0.33407  1.0000
  C   C42       1.0  0.33751  0.19591  0.33365  1.0000
  C   C43       1.0  0.46649  0.17946  0.33414  1.0000
  C   C44       1.0  0.45083  0.14294  0.33201  1.0000
  C   C45       1.0  0.47091  0.12662  0.33170  1.0000
  C   C46       1.0  0.50727  0.14652  0.33402  1.0000
  C   C47       1.0  0.52312  0.18284  0.33647  1.0000
  C   C48       1.0  0.50309  0.19894  0.33640  1.0000
  C   C49       1.0  0.46648  0.28708  0.33298  1.0000
  C   C50       1.0  0.50308  0.30421  0.33096  1.0000
  C   C51       1.0  0.52311  0.34034  0.33104  1.0000
  C   C52       1.0  0.50725  0.36081  0.33342  1.0000
  C   C53       1.0  0.47088  0.34434  0.33544  1.0000
  C   C54       1.0  0.45081  0.30793  0.33501  1.0000
  H   H19       1.0  0.45887  0.10023  0.32974  1.0000
  H   H20       1.0  0.42452  0.12776  0.33021  1.0000
  H   H21       1.0  0.54949  0.19798  0.33783  1.0000
  H   H22       1.0  0.51594  0.22535  0.33800  1.0000
  H   H23       1.0  0.51594  0.29065  0.32941  1.0000
  H   H24       1.0  0.54948  0.35157  0.32980  1.0000
  H   H25       1.0  0.42450  0.29680  0.33662  1.0000
  H   H26       1.0  0.45884  0.35868  0.33727  1.0000
  H   H27       1.0  0.34987  0.22231  0.33351  1.0000
  H   H28       1.0  0.28831  0.19138  0.33422  1.0000
  H   H29       1.0  0.28830  0.09697  0.33437  1.0000
  H   H30       1.0  0.34987  0.12761  0.33365  1.0000
  C   C55       1.0  0.79165  0.25021  0.33379  1.0000
  N   N13       1.0  0.80847  0.23194  0.33371  1.0000
  C   C56       1.0  0.79152  0.19670  0.33346  1.0000
  N   N14       1.0  0.75628  0.17974  0.33326  1.0000
  C   C57       1.0  0.73801  0.19658  0.33321  1.0000
  N   N15       1.0  0.75666  0.23157  0.33351  1.0000
  C   C58       1.0  0.80996  0.17826  0.33359  1.0000
  C   C59       1.0  0.84659  0.19590  0.33376  1.0000
  C   C60       1.0  0.86482  0.17778  0.33417  1.0000
  C   C61       1.0  0.84685  0.14138  0.33453  1.0000
  C   C62       1.0  0.81045  0.12340  0.33409  1.0000
  C   C63       1.0  0.79233  0.14163  0.33367  1.0000
  C   C64       1.0  0.80879  0.28706  0.33412  1.0000
  C   C65       1.0  0.84531  0.30791  0.33206  1.0000
  C   C66       1.0  0.86164  0.34431  0.33174  1.0000
  C   C67       1.0  0.84175  0.36079  0.33395  1.0000
  C   C68       1.0  0.80543  0.34032  0.33637  1.0000
  C   C69       1.0  0.78932  0.30419  0.33631  1.0000
  C   C70       1.0  0.70115  0.17944  0.33299  1.0000
  C   C71       1.0  0.68404  0.19892  0.33095  1.0000
  C   C72       1.0  0.64791  0.18282  0.33096  1.0000
  C   C73       1.0  0.62743  0.14650  0.33335  1.0000
  C   C74       1.0  0.64390  0.12660  0.33537  1.0000
  C   C75       1.0  0.68031  0.14292  0.33500  1.0000
  H   H31       1.0  0.88803  0.35866  0.32985  1.0000
  H   H32       1.0  0.86049  0.29678  0.33031  1.0000
  H   H33       1.0  0.79029  0.35155  0.33772  1.0000
  H   H34       1.0  0.76291  0.29063  0.33789  1.0000
  H   H35       1.0  0.69760  0.22533  0.32939  1.0000
  H   H36       1.0  0.63668  0.19796  0.32966  1.0000
  H   H37       1.0  0.69143  0.12774  0.33661  1.0000
  H   H38       1.0  0.62955  0.10021  0.33717  1.0000
  H   H39       1.0  0.76593  0.12759  0.33353  1.0000
  H   H40       1.0  0.79686  0.09696  0.33424  1.0000
  H   H41       1.0  0.89127  0.19137  0.33437  1.0000
  H   H42       1.0  0.86062  0.22230  0.33366  1.0000
  C   C76       1.0  0.73803  0.54152  0.33377  1.0000
  N   N16       1.0  0.75631  0.57662  0.33369  1.0000
  C   C77       1.0  0.79155  0.59491  0.33343  1.0000
  N   N17       1.0  0.80850  0.57662  0.33323  1.0000
  C   C78       1.0  0.79168  0.54152  0.33317  1.0000
  N   N18       1.0  0.75668  0.52518  0.33348  1.0000
  C   C79       1.0  0.80998  0.63178  0.33357  1.0000
  C   C80       1.0  0.79235  0.65078  0.33375  1.0000
  C   C81       1.0  0.81047  0.68712  0.33417  1.0000
  C   C82       1.0  0.84687  0.70555  0.33453  1.0000
  C   C83       1.0  0.86484  0.68712  0.33408  1.0000
  C   C84       1.0  0.84662  0.65078  0.33366  1.0000
  C   C85       1.0  0.70118  0.52181  0.33411  1.0000
  C   C86       1.0  0.68034  0.53748  0.33204  1.0000
  C   C87       1.0  0.64393  0.51741  0.33172  1.0000
  C   C88       1.0  0.62746  0.48104  0.33393  1.0000
  C   C89       1.0  0.64793  0.46519  0.33631  1.0000
  C   C90       1.0  0.68406  0.48521  0.33627  1.0000
  C   C91       1.0  0.80882  0.52182  0.33295  1.0000
  C   C92       1.0  0.78935  0.48522  0.33090  1.0000
  C   C93       1.0  0.80546  0.46520  0.33096  1.0000
  C   C94       1.0  0.84178  0.48105  0.33337  1.0000
  C   C95       1.0  0.86168  0.51742  0.33545  1.0000
  C   C96       1.0  0.84534  0.53749  0.33503  1.0000
  H   H43       1.0  0.62959  0.52945  0.32983  1.0000
  H   H44       1.0  0.69147  0.56379  0.33032  1.0000
  H   H45       1.0  0.63670  0.43881  0.33763  1.0000
  H   H46       1.0  0.69761  0.47236  0.33783  1.0000
  H   H47       1.0  0.76294  0.47236  0.32932  1.0000
  H   H48       1.0  0.79032  0.43882  0.32969  1.0000
  H   H49       1.0  0.86052  0.56380  0.33667  1.0000
  H   H50       1.0  0.88806  0.52947  0.33732  1.0000
  H   H51       1.0  0.86065  0.63842  0.33351  1.0000
  H   H52       1.0  0.89129  0.69998  0.33423  1.0000
  H   H53       1.0  0.79688  0.69998  0.33437  1.0000
  H   H54       1.0  0.76595  0.63842  0.33365  1.0000
  C   C97       1.0  0.22731  0.11368  0.41512  1.0000
  N   N19       1.0  0.19229  0.09617  0.41064  1.0000
  H   H55       1.0  0.23922  0.11963  0.47595  1.0000
  C   C98       1.0  0.87459  0.11369  0.41512  1.0000
  N   N20       1.0  0.89210  0.09619  0.41064  1.0000
  H   H56       1.0  0.86864  0.11965  0.47595  1.0000
  C   C99       1.0  0.87458  0.76098  0.41512  1.0000
  N   N21       1.0  0.89209  0.79600  0.41064  1.0000
  H   H57       1.0  0.86861  0.74907  0.47595  1.0000
  C   C100      1.0  0.59124  0.13189  0.33425  1.0000
  C   C101      1.0  0.57445  0.13106  0.41470  1.0000
  N   N22       1.0  0.54513  0.13297  0.41043  1.0000
  C   C102      1.0  0.52884  0.13191  0.33285  1.0000
  H   H58       1.0  0.58655  0.13481  0.47491  1.0000
  C   C103      1.0  0.85638  0.45949  0.33447  1.0000
  C   C104      1.0  0.85738  0.44352  0.41475  1.0000
  N   N23       1.0  0.85545  0.41228  0.41044  1.0000
  C   C105      1.0  0.85635  0.39695  0.33289  1.0000
  H   H59       1.0  0.85373  0.45189  0.47504  1.0000
  C   C106      1.0  0.52882  0.39697  0.33450  1.0000
  C   C107      1.0  0.54483  0.41394  0.41476  1.0000
  N   N24       1.0  0.57605  0.44328  0.41040  1.0000
  C   C108      1.0  0.59128  0.45948  0.33277  1.0000
  H   H60       1.0  0.53649  0.40192  0.47505  1.0000
