data_image0
_chemical_formula_structural       HC6O2H2NHNHC6O2H2NHNHC6O2H2NHNHC3H2CH2C3H2CH2C3H2CH2C3H2CH2C3H2CH2C3H2CH2C3H2C3HNHNHC3H2C3H2NHNHC3H2C3H2NHNHC3HNH2CH2C3HNH2CH2C3HNH2CH2C3HNH2CH2C3HNH2CH2C3HNH2CH2
_chemical_formula_sum              "H84 C84 O6 N18"
_cell_length_a       29.9181
_cell_length_b       29.9181
_cell_length_c       14.9888
_cell_angle_alpha    90
_cell_angle_beta     90
_cell_angle_gamma    120

_space_group_name_H-M_alt    "P 1"
_space_group_IT_number       1

loop_
  _space_group_symop_operation_xyz
  'x, y, z'

loop_
  _atom_site_type_symbol
  _atom_site_label
  _atom_site_symmetry_multiplicity
  _atom_site_fract_x
  _atom_site_fract_y
  _atom_site_fract_z
  _atom_site_occupancy
  H   H1        1.0  0.01080  0.43721  0.35634  1.0000
  C   C1        1.0  0.97409  0.49455  0.29048  1.0000
  C   C2        1.0  0.88082  0.43154  0.28098  1.0000
  C   C3        1.0  0.93284  0.44541  0.26421  1.0000
  C   C4        1.0  0.02690  0.50655  0.29051  1.0000
  C   C5        1.0  0.06819  0.55573  0.26457  1.0000
  C   C6        1.0  0.12017  0.56955  0.28157  1.0000
  O   O1        1.0  0.94322  0.41128  0.22149  1.0000
  O   O2        1.0  0.05788  0.58993  0.22195  1.0000
  H   H2        1.0  0.93449  0.38242  0.26259  1.0000
  H   H3        1.0  0.06659  0.61874  0.26316  1.0000
  N   N1        1.0  0.15958  0.62177  0.27008  1.0000
  H   H4        1.0  0.19076  0.62307  0.23878  1.0000
  N   N2        1.0  0.84147  0.37931  0.26933  1.0000
  H   H5        1.0  0.81027  0.37799  0.23808  1.0000
  C   C7        1.0  0.50633  0.47973  0.29032  1.0000
  C   C8        1.0  0.56936  0.44952  0.28088  1.0000
  C   C9        1.0  0.55549  0.48766  0.26410  1.0000
  C   C10       1.0  0.49433  0.52055  0.29062  1.0000
  C   C11       1.0  0.44518  0.51269  0.26452  1.0000
  C   C12       1.0  0.43139  0.55088  0.28141  1.0000
  O   O3        1.0  0.58962  0.53220  0.22146  1.0000
  O   O4        1.0  0.41098  0.46818  0.22187  1.0000
  H   H6        1.0  0.61848  0.55229  0.26257  1.0000
  H   H7        1.0  0.38216  0.44809  0.26308  1.0000
  N   N3        1.0  0.37917  0.53807  0.26986  1.0000
  H   H8        1.0  0.37789  0.56795  0.23851  1.0000
  N   N4        1.0  0.62160  0.46242  0.26933  1.0000
  H   H9        1.0  0.62295  0.43257  0.23804  1.0000
  C   C13       1.0  0.52112  0.02673  0.29058  1.0000
  C   C14       1.0  0.55148  0.12001  0.28116  1.0000
  C   C15       1.0  0.51325  0.06801  0.26451  1.0000
  C   C16       1.0  0.48026  0.97393  0.29068  1.0000
  C   C17       1.0  0.48806  0.93260  0.26457  1.0000
  C   C18       1.0  0.44987  0.88063  0.28156  1.0000
  O   O5        1.0  0.46869  0.05769  0.22206  1.0000
  O   O6        1.0  0.53251  0.94287  0.22178  1.0000
  H   H10       1.0  0.44868  0.06650  0.26331  1.0000
  H   H11       1.0  0.55262  0.93409  0.26285  1.0000
  N   N5        1.0  0.46262  0.84119  0.26995  1.0000
  H   H12       1.0  0.43269  0.81002  0.23871  1.0000
  N   N6        1.0  0.53867  0.15942  0.26963  1.0000
  H   H13       1.0  0.56850  0.19054  0.23808  1.0000
  C   C19       1.0  0.26652  0.49397  0.26953  1.0000
  C   C20       1.0  0.21245  0.47014  0.26521  1.0000
  C   C21       1.0  0.18222  0.45167  0.34311  1.0000
  H   H14       1.0  0.28663  0.50586  0.21103  1.0000
  H   H15       1.0  0.19523  0.46549  0.20428  1.0000
  C   C22       1.0  0.12470  0.42314  0.33968  1.0000
  H   H16       1.0  0.11120  0.38500  0.36874  1.0000
  H   H17       1.0  0.11081  0.41636  0.27071  1.0000
  C   C23       1.0  0.50678  0.77268  0.26947  1.0000
  C   C24       1.0  0.53064  0.74248  0.26506  1.0000
  C   C25       1.0  0.54922  0.73078  0.34290  1.0000
  H   H18       1.0  0.49479  0.78084  0.21101  1.0000
  H   H19       1.0  0.53522  0.72987  0.20412  1.0000
  C   C26       1.0  0.57776  0.70180  0.33940  1.0000
  H   H20       1.0  0.61592  0.72647  0.36835  1.0000
  H   H21       1.0  0.58447  0.69465  0.27041  1.0000
  C   C27       1.0  0.22806  0.73444  0.26983  1.0000
  C   C28       1.0  0.25829  0.78851  0.26555  1.0000
  C   C29       1.0  0.27006  0.81872  0.34348  1.0000
  H   H22       1.0  0.21985  0.71434  0.21131  1.0000
  H   H23       1.0  0.27087  0.80574  0.20464  1.0000
  C   C30       1.0  0.29907  0.87625  0.34011  1.0000
  H   H24       1.0  0.27445  0.88974  0.36925  1.0000
  H   H25       1.0  0.30616  0.89016  0.27115  1.0000
  C   C31       1.0  0.73429  0.50675  0.26909  1.0000
  C   C32       1.0  0.78836  0.53067  0.26480  1.0000
  C   C33       1.0  0.81857  0.54919  0.34273  1.0000
  H   H26       1.0  0.71419  0.49482  0.21057  1.0000
  H   H27       1.0  0.80561  0.53533  0.20390  1.0000
  C   C34       1.0  0.87609  0.57777  0.33937  1.0000
  H   H28       1.0  0.88954  0.61590  0.36842  1.0000
  H   H29       1.0  0.89001  0.58455  0.27042  1.0000
  C   C35       1.0  0.49437  0.22779  0.26933  1.0000
  C   C36       1.0  0.47037  0.25786  0.26501  1.0000
  C   C37       1.0  0.45195  0.26964  0.34295  1.0000
  H   H30       1.0  0.50620  0.21952  0.21080  1.0000
  H   H31       1.0  0.46555  0.27028  0.20406  1.0000
  C   C38       1.0  0.42324  0.29847  0.33955  1.0000
  H   H32       1.0  0.38516  0.27374  0.36875  1.0000
  H   H33       1.0  0.41634  0.30547  0.27057  1.0000
  C   C39       1.0  0.77314  0.26661  0.26875  1.0000
  C   C40       1.0  0.74303  0.21254  0.26430  1.0000
  C   C41       1.0  0.73142  0.18225  0.34210  1.0000
  H   H34       1.0  0.78124  0.28678  0.21032  1.0000
  H   H35       1.0  0.73041  0.19536  0.20336  1.0000
  C   C42       1.0  0.70250  0.12472  0.33855  1.0000
  H   H36       1.0  0.72725  0.11128  0.36733  1.0000
  H   H37       1.0  0.69529  0.11088  0.26956  1.0000
  C   C43       1.0  0.96148  0.52944  0.33164  1.0000
  C   C44       1.0  0.91004  0.51711  0.34510  1.0000
  C   C45       1.0  0.86987  0.46774  0.32101  1.0000
  H   H38       1.0  0.99008  0.56381  0.35642  1.0000
  H   H39       1.0  0.83257  0.45733  0.33600  1.0000
  C   C46       1.0  0.13106  0.53330  0.32157  1.0000
  C   C47       1.0  0.09086  0.48389  0.34530  1.0000
  C   C48       1.0  0.03943  0.47157  0.33161  1.0000
  H   H40       1.0  0.16835  0.54365  0.33656  1.0000
  N   N7        1.0  0.09939  0.44730  0.39007  1.0000
  H   H41       1.0  0.11600  0.46120  0.45119  1.0000
  N   N8        1.0  0.90141  0.55364  0.38984  1.0000
  H   H42       1.0  0.88474  0.53969  0.45090  1.0000
  C   C49       1.0  0.47142  0.43220  0.33139  1.0000
  C   C50       1.0  0.48378  0.39311  0.34488  1.0000
  C   C51       1.0  0.53317  0.40236  0.32090  1.0000
  H   H43       1.0  0.43709  0.42646  0.35633  1.0000
  H   H44       1.0  0.54359  0.37547  0.33588  1.0000
  C   C52       1.0  0.46765  0.59802  0.32138  1.0000
  C   C53       1.0  0.51705  0.60721  0.34519  1.0000
  C   C54       1.0  0.52932  0.56807  0.33165  1.0000
  H   H45       1.0  0.45730  0.62497  0.33636  1.0000
  H   H46       1.0  0.56370  0.57380  0.35629  1.0000
  N   N9        1.0  0.55366  0.65236  0.38987  1.0000
  H   H47       1.0  0.53978  0.65509  0.45100  1.0000
  N   N10       1.0  0.44729  0.34799  0.38978  1.0000
  H   H48       1.0  0.46128  0.34539  0.45089  1.0000
  C   C55       1.0  0.56870  0.03929  0.33142  1.0000
  C   C56       1.0  0.60788  0.09071  0.34476  1.0000
  C   C57       1.0  0.59869  0.13091  0.32088  1.0000
  H   H49       1.0  0.57446  0.01066  0.35606  1.0000
  H   H50       1.0  0.62565  0.16821  0.33577  1.0000
  C   C58       1.0  0.40278  0.86979  0.32170  1.0000
  C   C59       1.0  0.39365  0.91002  0.34558  1.0000
  C   C60       1.0  0.43280  0.96143  0.33191  1.0000
  H   H51       1.0  0.37582  0.83251  0.33669  1.0000
  H   H52       1.0  0.42714  0.99009  0.35675  1.0000
  N   N11       1.0  0.34856  0.90153  0.39044  1.0000
  H   H53       1.0  0.34586  0.88488  0.45153  1.0000
  N   N12       1.0  0.65311  0.09930  0.38919  1.0000
  H   H54       1.0  0.65590  0.11589  0.45036  1.0000
  C   C61       1.0  0.20777  0.45819  0.42530  1.0000
  C   C62       1.0  0.26223  0.48284  0.43163  1.0000
  C   C63       1.0  0.29238  0.50074  0.35191  1.0000
  H   H55       1.0  0.18604  0.44395  0.48197  1.0000
  N   N13       1.0  0.28307  0.48756  0.51440  1.0000
  H   H56       1.0  0.26144  0.47497  0.56741  1.0000
  H   H57       1.0  0.32002  0.50464  0.52428  1.0000
  C   C64       1.0  0.34979  0.52467  0.35554  1.0000
  H   H58       1.0  0.35737  0.49695  0.39033  1.0000
  H   H59       1.0  0.36484  0.55953  0.39655  1.0000
  C   C65       1.0  0.54279  0.74986  0.42511  1.0000
  C   C66       1.0  0.51808  0.77961  0.43153  1.0000
  C   C67       1.0  0.50008  0.79180  0.35188  1.0000
  H   H60       1.0  0.55709  0.74240  0.48174  1.0000
  N   N14       1.0  0.51344  0.79576  0.51432  1.0000
  H   H61       1.0  0.52608  0.78675  0.56729  1.0000
  H   H62       1.0  0.49630  0.81558  0.52426  1.0000
  C   C68       1.0  0.47611  0.82525  0.35559  1.0000
  H   H63       1.0  0.50385  0.86057  0.39032  1.0000
  H   H64       1.0  0.44129  0.80543  0.39670  1.0000
  C   C69       1.0  0.25101  0.79314  0.42564  1.0000
  C   C70       1.0  0.22120  0.73869  0.43193  1.0000
  C   C71       1.0  0.20896  0.70856  0.35220  1.0000
  H   H65       1.0  0.25850  0.81487  0.48233  1.0000
  N   N15       1.0  0.20505  0.71783  0.51468  1.0000
  H   H66       1.0  0.21411  0.73945  0.56771  1.0000
  H   H67       1.0  0.18519  0.68087  0.52452  1.0000
  C   C72       1.0  0.17550  0.65114  0.35577  1.0000
  H   H68       1.0  0.14018  0.64354  0.39051  1.0000
  H   H69       1.0  0.19531  0.63610  0.39683  1.0000
  C   C73       1.0  0.79298  0.54266  0.42488  1.0000
  C   C74       1.0  0.73852  0.51792  0.43117  1.0000
  C   C75       1.0  0.70840  0.49996  0.35144  1.0000
  H   H70       1.0  0.81470  0.55695  0.48157  1.0000
  N   N16       1.0  0.71765  0.51320  0.51391  1.0000
  H   H71       1.0  0.73927  0.52582  0.56694  1.0000
  H   H72       1.0  0.68069  0.49604  0.52376  1.0000
  C   C76       1.0  0.65097  0.47591  0.35502  1.0000
  H   H73       1.0  0.64331  0.50359  0.38976  1.0000
  H   H74       1.0  0.63599  0.44107  0.39608  1.0000
  C   C77       1.0  0.45871  0.25082  0.42517  1.0000
  C   C78       1.0  0.48356  0.22119  0.43149  1.0000
  C   C79       1.0  0.50137  0.20888  0.35173  1.0000
  H   H75       1.0  0.44452  0.25833  0.48188  1.0000
  N   N17       1.0  0.48852  0.20527  0.51428  1.0000
  H   H76       1.0  0.47597  0.21434  0.56732  1.0000
  H   H77       1.0  0.50574  0.18554  0.52415  1.0000
  C   C80       1.0  0.52544  0.17552  0.35534  1.0000
  H   H78       1.0  0.49786  0.14027  0.39042  1.0000
  H   H79       1.0  0.56039  0.19548  0.39609  1.0000
  C   C81       1.0  0.75049  0.20775  0.42432  1.0000
  C   C82       1.0  0.78014  0.26221  0.43079  1.0000
  C   C83       1.0  0.79224  0.29242  0.35117  1.0000
  H   H80       1.0  0.74309  0.18598  0.48092  1.0000
  N   N18       1.0  0.79627  0.28299  0.51358  1.0000
  H   H81       1.0  0.78731  0.26132  0.56654  1.0000
  H   H82       1.0  0.81600  0.31994  0.52357  1.0000
  C   C84       1.0  0.82557  0.34985  0.35493  1.0000
  H   H83       1.0  0.86091  0.35751  0.38968  1.0000
  H   H84       1.0  0.80568  0.36477  0.39605  1.0000
