data_image0
_chemical_formula_structural       CNCOCH3CNCOCH3CNCOCH3NC2OCH3NC2OCH3NC2OCH3NC18H12NC18H12NC18H12NC18H12NC2OCH3NC2OCH3NC2OCH3CNCOCH3CNCOCH3CNCOCH3
_chemical_formula_sum              "C108 N16 O12 H84"
_cell_length_a       38.7817
_cell_length_b       38.7816
_cell_length_c       14.7856
_cell_angle_alpha    90
_cell_angle_beta     90
_cell_angle_gamma    120

_space_group_name_H-M_alt    "P 1"
_space_group_IT_number       1

loop_
  _space_group_symop_operation_xyz
  'x, y, z'

loop_
  _atom_site_type_symbol
  _atom_site_label
  _atom_site_symmetry_multiplicity
  _atom_site_fract_x
  _atom_site_fract_y
  _atom_site_fract_z
  _atom_site_occupancy
  C   C1        1.0  0.25916  0.13379  0.33696  1.0000
  N   N1        1.0  0.19429  0.10375  0.26931  1.0000
  C   C2        1.0  0.23457  0.12412  0.25907  1.0000
  O   O1        1.0  0.24870  0.13326  0.17258  1.0000
  C   C3        1.0  0.25173  0.10181  0.12862  1.0000
  H   H1        1.0  0.22254  0.07508  0.12142  1.0000
  H   H2        1.0  0.27173  0.09448  0.16515  1.0000
  H   H3        1.0  0.26397  0.11202  0.06118  1.0000
  C   C4        1.0  0.87311  0.12927  0.34010  1.0000
  N   N2        1.0  0.90294  0.09440  0.27163  1.0000
  C   C5        1.0  0.88250  0.11426  0.26194  1.0000
  O   O2        1.0  0.87302  0.11915  0.17568  1.0000
  C   C6        1.0  0.90409  0.15390  0.13171  1.0000
  H   H4        1.0  0.93106  0.15189  0.12401  1.0000
  H   H5        1.0  0.91112  0.18109  0.16851  1.0000
  H   H6        1.0  0.89365  0.15584  0.06448  1.0000
  C   C7        1.0  0.87734  0.74742  0.33235  1.0000
  N   N3        1.0  0.91221  0.81238  0.26506  1.0000
  C   C8        1.0  0.89225  0.77210  0.25458  1.0000
  O   O3        1.0  0.88723  0.75799  0.16807  1.0000
  C   C9        1.0  0.85259  0.75472  0.12445  1.0000
  H   H7        1.0  0.85483  0.78382  0.11738  1.0000
  H   H8        1.0  0.82535  0.73459  0.16114  1.0000
  H   H9        1.0  0.85054  0.74252  0.05697  1.0000
  N   N4        1.0  0.61085  0.17881  0.28202  1.0000
  C   C10       1.0  0.57612  0.17824  0.26526  1.0000
  C   C11       1.0  0.55388  0.18010  0.33942  1.0000
  O   O4        1.0  0.56561  0.17672  0.17657  1.0000
  C   C12       1.0  0.54261  0.13677  0.14265  1.0000
  H   H10       1.0  0.53534  0.13841  0.07212  1.0000
  H   H11       1.0  0.51473  0.11984  0.17996  1.0000
  H   H12       1.0  0.55947  0.12112  0.14536  1.0000
  N   N5        1.0  0.82783  0.43534  0.27916  1.0000
  C   C13       1.0  0.82835  0.40109  0.26347  1.0000
  C   C14       1.0  0.82635  0.37725  0.33832  1.0000
  O   O5        1.0  0.82997  0.39173  0.17511  1.0000
  C   C15       1.0  0.86995  0.40856  0.14147  1.0000
  H   H13       1.0  0.86837  0.39939  0.07116  1.0000
  H   H14       1.0  0.88684  0.39775  0.17941  1.0000
  H   H15       1.0  0.88560  0.44108  0.14354  1.0000
  N   N6        1.0  0.57101  0.39571  0.27803  1.0000
  C   C16       1.0  0.60518  0.43041  0.26116  1.0000
  C   C17       1.0  0.62937  0.45260  0.33523  1.0000
  O   O6        1.0  0.61409  0.44100  0.17249  1.0000
  C   C18       1.0  0.59722  0.46415  0.13905  1.0000
  H   H16       1.0  0.60606  0.47149  0.06850  1.0000
  H   H17       1.0  0.60830  0.49200  0.17656  1.0000
  H   H18       1.0  0.56471  0.44738  0.14194  1.0000
  N   N7        1.0  0.00315  0.00339  0.33902  1.0000
  C   C19       1.0  0.04562  0.02524  0.34172  1.0000
  C   C20       1.0  0.98251  0.96091  0.34061  1.0000
  C   C21       1.0  0.98136  0.02405  0.34226  1.0000
  C   C22       1.0  0.98259  0.04819  0.26950  1.0000
  C   C23       1.0  0.96133  0.06891  0.27310  1.0000
  C   C24       1.0  0.93808  0.06656  0.34957  1.0000
  C   C25       1.0  0.93660  0.04161  0.42145  1.0000
  C   C26       1.0  0.95798  0.02101  0.41825  1.0000
  C   C27       1.0  0.06607  0.04844  0.41780  1.0000
  C   C28       1.0  0.10804  0.07000  0.42047  1.0000
  C   C29       1.0  0.13144  0.06884  0.34799  1.0000
  C   C30       1.0  0.11040  0.04573  0.27145  1.0000
  C   C31       1.0  0.06840  0.02434  0.26833  1.0000
  C   C32       1.0  0.98576  0.94009  0.41535  1.0000
  C   C33       1.0  0.96535  0.89811  0.41692  1.0000
  C   C34       1.0  0.94029  0.87507  0.34473  1.0000
  C   C35       1.0  0.93773  0.89644  0.26946  1.0000
  C   C36       1.0  0.95835  0.93846  0.26741  1.0000
  H   H19       1.0  0.12120  0.08754  0.47558  1.0000
  H   H20       1.0  0.05035  0.05005  0.47160  1.0000
  H   H21       1.0  0.05439  0.00788  0.21212  1.0000
  H   H22       1.0  0.12555  0.04375  0.21689  1.0000
  H   H23       1.0  0.99919  0.05087  0.21342  1.0000
  H   H24       1.0  0.96354  0.08637  0.21901  1.0000
  H   H25       1.0  0.00346  0.95555  0.46892  1.0000
  H   H26       1.0  0.97005  0.88466  0.47105  1.0000
  H   H27       1.0  0.92022  0.88152  0.21519  1.0000
  H   H28       1.0  0.95554  0.95274  0.21215  1.0000
  H   H29       1.0  0.95617  0.00339  0.47160  1.0000
  H   H30       1.0  0.91898  0.03711  0.47650  1.0000
  N   N8        1.0  0.43087  0.21898  0.34886  1.0000
  C   C37       1.0  0.45429  0.26113  0.36026  1.0000
  C   C38       1.0  0.38836  0.19799  0.34539  1.0000
  C   C39       1.0  0.45360  0.19954  0.33762  1.0000
  C   C40       1.0  0.47735  0.20721  0.25964  1.0000
  C   C41       1.0  0.50932  0.19970  0.25854  1.0000
  C   C42       1.0  0.51842  0.18322  0.33436  1.0000
  C   C43       1.0  0.49278  0.17351  0.41036  1.0000
  C   C44       1.0  0.46135  0.18183  0.41240  1.0000
  C   C45       1.0  0.46312  0.28687  0.28559  1.0000
  C   C46       1.0  0.49496  0.32638  0.28866  1.0000
  C   C47       1.0  0.52020  0.34178  0.36544  1.0000
  C   C48       1.0  0.51007  0.31595  0.44110  1.0000
  C   C49       1.0  0.47756  0.27674  0.43909  1.0000
  C   C50       1.0  0.36769  0.20319  0.27294  1.0000
  C   C51       1.0  0.32571  0.18276  0.27022  1.0000
  C   C52       1.0  0.30219  0.15518  0.33835  1.0000
  C   C53       1.0  0.32338  0.15042  0.41115  1.0000
  C   C54       1.0  0.36537  0.17140  0.41482  1.0000
  H   H31       1.0  0.50089  0.34307  0.23111  1.0000
  H   H32       1.0  0.44868  0.27611  0.22554  1.0000
  H   H33       1.0  0.47340  0.25831  0.49255  1.0000
  H   H34       1.0  0.52807  0.32383  0.49651  1.0000
  H   H35       1.0  0.47396  0.22204  0.20626  1.0000
  H   H36       1.0  0.52785  0.20996  0.20402  1.0000
  H   H37       1.0  0.38309  0.22221  0.22138  1.0000
  H   H38       1.0  0.31271  0.18937  0.21820  1.0000
  H   H39       1.0  0.30835  0.13120  0.46291  1.0000
  H   H40       1.0  0.37912  0.16713  0.46907  1.0000
  H   H41       1.0  0.44641  0.17807  0.47182  1.0000
  H   H42       1.0  0.49810  0.16228  0.46794  1.0000
  N   N9        1.0  0.78758  0.21544  0.35223  1.0000
  C   C55       1.0  0.74543  0.19671  0.36376  1.0000
  C   C56       1.0  0.80861  0.19395  0.34883  1.0000
  C   C57       1.0  0.80694  0.25756  0.34002  1.0000
  C   C58       1.0  0.79933  0.27326  0.26130  1.0000
  C   C59       1.0  0.80677  0.31271  0.25918  1.0000
  C   C60       1.0  0.82321  0.33863  0.33449  1.0000
  C   C61       1.0  0.83283  0.32303  0.41123  1.0000
  C   C62       1.0  0.82451  0.28328  0.41442  1.0000
  C   C63       1.0  0.71967  0.17977  0.28914  1.0000
  C   C64       1.0  0.68015  0.17205  0.29238  1.0000
  C   C65       1.0  0.66477  0.18185  0.36925  1.0000
  C   C66       1.0  0.69064  0.19761  0.44484  1.0000
  C   C67       1.0  0.72988  0.20438  0.44268  1.0000
  C   C68       1.0  0.80290  0.16751  0.27728  1.0000
  C   C69       1.0  0.82341  0.14604  0.27458  1.0000
  C   C70       1.0  0.85159  0.15076  0.34178  1.0000
  C   C71       1.0  0.85685  0.17723  0.41375  1.0000
  C   C72       1.0  0.83579  0.19818  0.41743  1.0000
  H   H43       1.0  0.66342  0.16126  0.23490  1.0000
  H   H44       1.0  0.73040  0.17612  0.22902  1.0000
  H   H45       1.0  0.74835  0.21868  0.49607  1.0000
  H   H46       1.0  0.68276  0.20770  0.50029  1.0000
  H   H47       1.0  0.78463  0.25483  0.20815  1.0000
  H   H48       1.0  0.79672  0.32082  0.20401  1.0000
  H   H49       1.0  0.78346  0.16341  0.22635  1.0000
  H   H50       1.0  0.81644  0.12602  0.22332  1.0000
  H   H51       1.0  0.87653  0.18190  0.46481  1.0000
  H   H52       1.0  0.84046  0.21664  0.47101  1.0000
  H   H53       1.0  0.82822  0.27235  0.47426  1.0000
  H   H54       1.0  0.84397  0.33981  0.46854  1.0000
  N   N10       1.0  0.79118  0.57573  0.34430  1.0000
  C   C73       1.0  0.80997  0.55245  0.35710  1.0000
  C   C74       1.0  0.81261  0.61825  0.34078  1.0000
  C   C75       1.0  0.74902  0.55285  0.33302  1.0000
  C   C76       1.0  0.73302  0.52898  0.25521  1.0000
  C   C77       1.0  0.69356  0.49696  0.25433  1.0000
  C   C78       1.0  0.66794  0.48804  0.33002  1.0000
  C   C79       1.0  0.68382  0.51383  0.40579  1.0000
  C   C80       1.0  0.72358  0.54526  0.40775  1.0000
  C   C81       1.0  0.82687  0.54329  0.28295  1.0000
  C   C82       1.0  0.83456  0.51147  0.28723  1.0000
  C   C83       1.0  0.82477  0.48663  0.36472  1.0000
  C   C84       1.0  0.80914  0.49717  0.43985  1.0000
  C   C85       1.0  0.80245  0.52967  0.43668  1.0000
  C   C86       1.0  0.83867  0.63894  0.26862  1.0000
  C   C87       1.0  0.86008  0.68093  0.26576  1.0000
  C   C88       1.0  0.85574  0.70440  0.33357  1.0000
  C   C89       1.0  0.82961  0.68319  0.40608  1.0000
  C   C90       1.0  0.80870  0.64120  0.40982  1.0000
  H   H55       1.0  0.84520  0.50519  0.22997  1.0000
  H   H56       1.0  0.83045  0.55741  0.22247  1.0000
  H   H57       1.0  0.78814  0.53408  0.48969  1.0000
  H   H58       1.0  0.79905  0.47946  0.49572  1.0000
  H   H59       1.0  0.75126  0.53230  0.20192  1.0000
  H   H60       1.0  0.68523  0.47837  0.19988  1.0000
  H   H61       1.0  0.84252  0.62353  0.21741  1.0000
  H   H62       1.0  0.87981  0.69400  0.21399  1.0000
  H   H63       1.0  0.82521  0.69818  0.45759  1.0000
  H   H64       1.0  0.79056  0.62744  0.46388  1.0000
  H   H65       1.0  0.73473  0.56030  0.46706  1.0000
  H   H66       1.0  0.66727  0.50857  0.46335  1.0000
  N   N11       1.0  0.23904  0.11987  0.41637  1.0000
  C   C91       1.0  0.19872  0.09976  0.42714  1.0000
  C   C92       1.0  0.17435  0.09084  0.34920  1.0000
  O   O7        1.0  0.18338  0.08443  0.51063  1.0000
  C   C93       1.0  0.19465  0.11358  0.58142  1.0000
  H   H67       1.0  0.22667  0.12871  0.59414  1.0000
  H   H68       1.0  0.17936  0.09821  0.64325  1.0000
  H   H69       1.0  0.18587  0.13562  0.56533  1.0000
  N   N12       1.0  0.88744  0.12332  0.41920  1.0000
  C   C94       1.0  0.90765  0.10318  0.42942  1.0000
  C   C95       1.0  0.91618  0.08755  0.35123  1.0000
  O   O8        1.0  0.92353  0.10338  0.51234  1.0000
  C   C96       1.0  0.89494  0.08607  0.58438  1.0000
  H   H70       1.0  0.91074  0.08632  0.64561  1.0000
  H   H71       1.0  0.87259  0.05524  0.56937  1.0000
  H   H72       1.0  0.88016  0.10326  0.59752  1.0000
  N   N13       1.0  0.88356  0.76743  0.41192  1.0000
  C   C97       1.0  0.90380  0.80772  0.42297  1.0000
  C   C98       1.0  0.91928  0.83217  0.34517  1.0000
  O   O9        1.0  0.90387  0.82303  0.50654  1.0000
  C   C99       1.0  0.92141  0.81141  0.57740  1.0000
  H   H73       1.0  0.92144  0.82674  0.63926  1.0000
  H   H74       1.0  0.95217  0.81988  0.56150  1.0000
  H   H75       1.0  0.90422  0.77939  0.58995  1.0000
  C   C100      1.0  0.62646  0.17944  0.36500  1.0000
  N   N14       1.0  0.56894  0.17974  0.42249  1.0000
  C   C101      1.0  0.60283  0.17861  0.43922  1.0000
  O   O10       1.0  0.61206  0.17756  0.52793  1.0000
  C   C102      1.0  0.59458  0.13782  0.56342  1.0000
  H   H76       1.0  0.60370  0.13982  0.63387  1.0000
  H   H77       1.0  0.60490  0.12019  0.52678  1.0000
  H   H78       1.0  0.56207  0.12267  0.56132  1.0000
  C   C103      1.0  0.82711  0.45066  0.36165  1.0000
  N   N15       1.0  0.82659  0.39298  0.42090  1.0000
  C   C104      1.0  0.82776  0.42810  0.43658  1.0000
  O   O11       1.0  0.82863  0.43865  0.52502  1.0000
  C   C105      1.0  0.86827  0.46066  0.56118  1.0000
  H   H79       1.0  0.86611  0.46798  0.63139  1.0000
  H   H80       1.0  0.88623  0.48849  0.52437  1.0000
  H   H81       1.0  0.88315  0.44304  0.56000  1.0000
  C   C106      1.0  0.55613  0.38007  0.36107  1.0000
  N   N16       1.0  0.61408  0.43753  0.41836  1.0000
  C   C107      1.0  0.57905  0.40365  0.43521  1.0000
  O   O12       1.0  0.56893  0.39441  0.52399  1.0000
  C   C108      1.0  0.54680  0.41195  0.55996  1.0000
  H   H82       1.0  0.53980  0.40280  0.63043  1.0000
  H   H83       1.0  0.51879  0.40168  0.52363  1.0000
  H   H84       1.0  0.56421  0.44445  0.55789  1.0000
