data_image0
_chemical_formula_structural       H3CH3CH2C3HCH3NC3HCH3NC2H2C2H2C3HCH3NC3HCH3NC2H2C2H2C2HCH3C2HCH3C6HOC6OH5C4H2C6HOC6OH5C4H4C6HOC6OH5C4H4C6HOC6OH4C3H2C6HOC6OH4C3H2C3H2NC3H2NC4HCH3N2C4HCH3N2C3H2NC3H2NC4HCH3N2C4HCH3N2C4H2N2C4H2N2
_chemical_formula_sum              "H110 C150 N20 O10"
_cell_length_a       33.3412
_cell_length_b       41.7967
_cell_length_c       14.8077
_cell_angle_alpha    88.2126
_cell_angle_beta     91.4015
_cell_angle_gamma    89.6998

_space_group_name_H-M_alt    "P 1"
_space_group_IT_number       1

loop_
  _space_group_symop_operation_xyz
  'x, y, z'

loop_
  _atom_site_type_symbol
  _atom_site_label
  _atom_site_symmetry_multiplicity
  _atom_site_fract_x
  _atom_site_fract_y
  _atom_site_fract_z
  _atom_site_occupancy
  H   H1        1.0  0.04365  0.10141  0.41393  1.0000
  H   H2        1.0  0.90574  0.92381  0.41358  1.0000
  H   H3        1.0  0.78951  0.35566  0.34652  1.0000
  C   C1        1.0  0.86133  0.32849  0.34513  1.0000
  H   H4        1.0  0.86240  0.35295  0.34274  1.0000
  H   H5        1.0  0.59793  0.30435  0.31286  1.0000
  H   H6        1.0  0.15837  0.67109  0.34647  1.0000
  C   C2        1.0  0.08652  0.69828  0.34493  1.0000
  H   H7        1.0  0.08542  0.67387  0.34269  1.0000
  H   H8        1.0  0.34922  0.72310  0.31278  1.0000
  C   C3        1.0  0.11512  0.12711  0.37543  1.0000
  C   C4        1.0  0.15618  0.13232  0.35961  1.0000
  C   C5        1.0  0.17280  0.16353  0.35642  1.0000
  H   H9        1.0  0.17439  0.11284  0.35169  1.0000
  C   C6        1.0  0.21628  0.16745  0.34039  1.0000
  H   H10       1.0  0.23153  0.14469  0.33054  1.0000
  H   H11       1.0  0.23067  0.17853  0.39842  1.0000
  H   H12       1.0  0.22049  0.18250  0.27985  1.0000
  N   N1        1.0  0.10196  0.09637  0.37995  1.0000
  C   C7        1.0  0.83340  0.89897  0.37535  1.0000
  C   C8        1.0  0.79199  0.89412  0.35964  1.0000
  C   C9        1.0  0.77530  0.86298  0.35645  1.0000
  H   H13       1.0  0.77360  0.91377  0.35177  1.0000
  C   C10       1.0  0.73146  0.85941  0.34054  1.0000
  H   H14       1.0  0.71599  0.88240  0.33077  1.0000
  H   H15       1.0  0.71837  0.84703  0.39858  1.0000
  H   H16       1.0  0.72590  0.84572  0.27998  1.0000
  N   N2        1.0  0.84667  0.92961  0.37987  1.0000
  C   C11       1.0  0.82025  0.15884  0.30141  1.0000
  C   C12       1.0  0.83270  0.12671  0.31288  1.0000
  H   H17       1.0  0.81384  0.16763  0.23732  1.0000
  H   H18       1.0  0.83660  0.11342  0.25690  1.0000
  C   C13       1.0  0.12659  0.86889  0.30112  1.0000
  C   C14       1.0  0.11441  0.90077  0.31246  1.0000
  H   H19       1.0  0.13155  0.86148  0.23703  1.0000
  H   H20       1.0  0.10923  0.91526  0.25643  1.0000
  C   C15       1.0  0.25224  0.48492  0.35100  1.0000
  C   C16       1.0  0.21506  0.50133  0.35012  1.0000
  C   C17       1.0  0.21248  0.53486  0.36347  1.0000
  H   H21       1.0  0.18947  0.48864  0.33743  1.0000
  C   C18       1.0  0.17275  0.55121  0.35790  1.0000
  H   H22       1.0  0.14822  0.53482  0.34326  1.0000
  H   H23       1.0  0.17272  0.56977  0.30434  1.0000
  H   H24       1.0  0.16678  0.56231  0.42199  1.0000
  N   N3        1.0  0.25306  0.45269  0.33870  1.0000
  C   C19       1.0  0.69574  0.54172  0.35089  1.0000
  C   C20       1.0  0.73290  0.52533  0.35006  1.0000
  C   C21       1.0  0.73576  0.49150  0.36341  1.0000
  H   H25       1.0  0.75822  0.53830  0.33740  1.0000
  C   C22       1.0  0.77537  0.47527  0.35790  1.0000
  H   H26       1.0  0.79959  0.49198  0.34329  1.0000
  H   H27       1.0  0.77424  0.45790  0.30435  1.0000
  H   H28       1.0  0.78273  0.46275  0.42201  1.0000
  N   N4        1.0  0.69466  0.57423  0.33859  1.0000
  C   C23       1.0  0.95594  0.34744  0.35308  1.0000
  C   C24       1.0  0.99824  0.35073  0.35819  1.0000
  H   H29       1.0  0.93851  0.36755  0.34453  1.0000
  H   H30       1.0  0.01062  0.37301  0.35279  1.0000
  C   C25       1.0  0.99210  0.67915  0.35299  1.0000
  C   C26       1.0  0.94991  0.67575  0.35815  1.0000
  H   H31       1.0  0.00934  0.65923  0.34439  1.0000
  H   H32       1.0  0.93742  0.65359  0.35271  1.0000
  C   C27       1.0  0.46224  0.33647  0.28066  1.0000
  C   C28       1.0  0.50453  0.33184  0.28925  1.0000
  H   H33       1.0  0.44929  0.34046  0.21786  1.0000
  C   C29       1.0  0.52901  0.33410  0.20677  1.0000
  H   H34       1.0  0.51085  0.33863  0.14528  1.0000
  H   H35       1.0  0.54512  0.31164  0.19881  1.0000
  H   H36       1.0  0.55051  0.35359  0.21222  1.0000
  C   C30       1.0  0.48417  0.69166  0.28059  1.0000
  C   C31       1.0  0.44208  0.69609  0.28918  1.0000
  H   H37       1.0  0.49574  0.68903  0.21780  1.0000
  C   C32       1.0  0.41577  0.69565  0.20674  1.0000
  H   H38       1.0  0.43258  0.69245  0.14526  1.0000
  H   H39       1.0  0.39950  0.71829  0.19873  1.0000
  H   H40       1.0  0.39437  0.67605  0.21227  1.0000
  C   C33       1.0  0.99622  0.01477  0.42176  1.0000
  C   C34       1.0  0.02441  0.98949  0.41015  1.0000
  C   C35       1.0  0.06493  0.99468  0.38713  1.0000
  C   C36       1.0  0.07879  0.02664  0.37846  1.0000
  C   C37       1.0  0.05349  0.05251  0.40039  1.0000
  C   C38       1.0  0.01333  0.04572  0.42313  1.0000
  H   H41       1.0  0.01476  0.96651  0.40684  1.0000
  O   O1        1.0  0.11723  0.03229  0.35304  1.0000
  C   C39       1.0  0.95332  0.01027  0.42184  1.0000
  C   C40       1.0  0.93625  0.97928  0.42302  1.0000
  C   C41       1.0  0.89560  0.97301  0.40029  1.0000
  C   C42       1.0  0.86981  0.99937  0.37860  1.0000
  C   C43       1.0  0.88384  0.03113  0.38761  1.0000
  C   C44       1.0  0.92486  0.03581  0.41075  1.0000
  O   O2        1.0  0.83081  0.99430  0.35321  1.0000
  H   H42       1.0  0.93444  0.05887  0.40742  1.0000
  H   H43       1.0  0.13410  0.03025  0.40840  1.0000
  H   H44       1.0  0.81516  0.99507  0.40859  1.0000
  H   H45       1.0  0.99594  0.06451  0.44069  1.0000
  H   H46       1.0  0.95404  0.96009  0.44041  1.0000
  C   C45       1.0  0.06503  0.08501  0.39856  1.0000
  C   C46       1.0  0.08914  0.96833  0.36470  1.0000
  C   C47       1.0  0.88402  0.94055  0.39835  1.0000
  C   C48       1.0  0.85909  0.05799  0.36557  1.0000
  H   H47       1.0  0.83405  0.05533  0.32520  1.0000
  H   H48       1.0  0.11348  0.97187  0.32487  1.0000
  C   C49       1.0  0.21339  0.32996  0.37240  1.0000
  C   C50       1.0  0.21494  0.29609  0.36707  1.0000
  C   C51       1.0  0.18088  0.27612  0.36633  1.0000
  C   C52       1.0  0.14240  0.29087  0.36832  1.0000
  C   C53       1.0  0.13787  0.32470  0.37172  1.0000
  C   C54       1.0  0.17370  0.34321  0.37368  1.0000
  H   H49       1.0  0.24192  0.28508  0.35891  1.0000
  O   O3        1.0  0.10919  0.27202  0.36465  1.0000
  C   C55       1.0  0.25003  0.34836  0.37049  1.0000
  C   C56       1.0  0.28896  0.33452  0.38829  1.0000
  C   C57       1.0  0.32561  0.35032  0.36997  1.0000
  C   C58       1.0  0.32326  0.38285  0.34015  1.0000
  C   C59       1.0  0.28584  0.39951  0.33663  1.0000
  C   C60       1.0  0.25018  0.38182  0.34961  1.0000
  O   O4        1.0  0.35807  0.39937  0.32696  1.0000
  H   H50       1.0  0.22373  0.39390  0.33988  1.0000
  H   H51       1.0  0.10251  0.26958  0.30010  1.0000
  H   H52       1.0  0.36733  0.40655  0.38662  1.0000
  H   H53       1.0  0.17026  0.36734  0.37865  1.0000
  H   H54       1.0  0.29133  0.31165  0.41405  1.0000
  C   C61       1.0  0.09934  0.33993  0.37123  1.0000
  C   C62       1.0  0.18715  0.24261  0.36227  1.0000
  C   C63       1.0  0.36325  0.33506  0.38947  1.0000
  C   C64       1.0  0.28535  0.43332  0.32743  1.0000
  H   H55       1.0  0.31225  0.44430  0.31895  1.0000
  H   H56       1.0  0.09743  0.36437  0.36970  1.0000
  H   H57       1.0  0.21561  0.23376  0.35818  1.0000
  H   H58       1.0  0.36441  0.31585  0.43404  1.0000
  C   C65       1.0  0.73507  0.69620  0.37238  1.0000
  C   C66       1.0  0.73340  0.73018  0.36699  1.0000
  C   C67       1.0  0.76745  0.75016  0.36627  1.0000
  C   C68       1.0  0.80597  0.73538  0.36828  1.0000
  C   C69       1.0  0.81058  0.70147  0.37168  1.0000
  C   C70       1.0  0.77479  0.68292  0.37364  1.0000
  H   H59       1.0  0.70625  0.74138  0.35893  1.0000
  O   O5        1.0  0.83910  0.75431  0.36464  1.0000
  C   C71       1.0  0.69839  0.67783  0.37049  1.0000
  C   C72       1.0  0.65984  0.69129  0.38826  1.0000
  C   C73       1.0  0.62280  0.67589  0.36990  1.0000
  C   C74       1.0  0.62451  0.64404  0.34001  1.0000
  C   C75       1.0  0.66184  0.62745  0.33650  1.0000
  C   C76       1.0  0.69778  0.64483  0.34963  1.0000
  O   O6        1.0  0.58942  0.62781  0.32666  1.0000
  H   H60       1.0  0.72402  0.63298  0.33981  1.0000
  H   H61       1.0  0.84437  0.75818  0.30009  1.0000
  H   H62       1.0  0.58141  0.61931  0.38628  1.0000
  H   H63       1.0  0.77834  0.65868  0.37867  1.0000
  H   H64       1.0  0.65804  0.71358  0.41404  1.0000
  C   C77       1.0  0.84910  0.68625  0.37122  1.0000
  C   C78       1.0  0.76108  0.78377  0.36224  1.0000
  C   C79       1.0  0.58558  0.69075  0.38918  1.0000
  C   C80       1.0  0.66213  0.59384  0.32724  1.0000
  H   H65       1.0  0.63504  0.58305  0.31872  1.0000
  H   H66       1.0  0.85098  0.66185  0.36967  1.0000
  H   H67       1.0  0.73253  0.79270  0.35817  1.0000
  H   H68       1.0  0.58537  0.70891  0.43396  1.0000
  C   C81       1.0  0.74843  0.31774  0.36900  1.0000
  C   C82       1.0  0.74871  0.28403  0.38592  1.0000
  C   C83       1.0  0.78277  0.26434  0.37513  1.0000
  C   C84       1.0  0.81932  0.27918  0.35115  1.0000
  C   C85       1.0  0.82319  0.31309  0.34901  1.0000
  C   C86       1.0  0.78713  0.33142  0.35454  1.0000
  H   H69       1.0  0.72315  0.27300  0.40704  1.0000
  O   O7        1.0  0.85211  0.26025  0.34109  1.0000
  C   C87       1.0  0.71146  0.33578  0.37411  1.0000
  C   C88       1.0  0.67288  0.32140  0.36200  1.0000
  C   C89       1.0  0.63591  0.33690  0.37922  1.0000
  C   C90       1.0  0.63774  0.36898  0.40734  1.0000
  C   C91       1.0  0.67460  0.38609  0.40655  1.0000
  C   C92       1.0  0.71054  0.36922  0.38984  1.0000
  O   O8        1.0  0.60263  0.38502  0.42151  1.0000
  H   H70       1.0  0.73674  0.38154  0.39579  1.0000
  H   H71       1.0  0.85408  0.25729  0.27569  1.0000
  H   H72       1.0  0.59323  0.39397  0.36234  1.0000
  H   H73       1.0  0.67124  0.29857  0.33945  1.0000
  C   C93       1.0  0.78098  0.23125  0.39818  1.0000
  C   C94       1.0  0.59843  0.32242  0.35780  1.0000
  C   C95       1.0  0.67361  0.41968  0.41630  1.0000
  H   H74       1.0  0.64699  0.42928  0.43413  1.0000
  H   H75       1.0  0.75889  0.22313  0.43966  1.0000
  C   C96       1.0  0.19994  0.70849  0.36901  1.0000
  C   C97       1.0  0.20003  0.74183  0.38592  1.0000
  C   C98       1.0  0.16573  0.76176  0.37510  1.0000
  C   C99       1.0  0.12866  0.74746  0.35106  1.0000
  C   C100      1.0  0.12474  0.71359  0.34893  1.0000
  C   C101      1.0  0.16093  0.69514  0.35453  1.0000
  H   H76       1.0  0.22605  0.75240  0.40703  1.0000
  O   O9        1.0  0.09566  0.76661  0.34079  1.0000
  C   C102      1.0  0.23701  0.69034  0.37410  1.0000
  C   C103      1.0  0.27533  0.70499  0.36196  1.0000
  C   C104      1.0  0.31267  0.68911  0.37917  1.0000
  C   C105      1.0  0.31145  0.65641  0.40734  1.0000
  C   C106      1.0  0.27458  0.63931  0.40661  1.0000
  C   C107      1.0  0.23828  0.65655  0.38977  1.0000
  O   O10       1.0  0.34686  0.64004  0.42158  1.0000
  H   H77       1.0  0.21221  0.64410  0.39593  1.0000
  H   H78       1.0  0.09230  0.77099  0.27537  1.0000
  H   H79       1.0  0.35498  0.63241  0.36242  1.0000
  H   H80       1.0  0.27648  0.72832  0.33941  1.0000
  C   C108      1.0  0.16804  0.79436  0.39796  1.0000
  C   C109      1.0  0.34970  0.70405  0.35779  1.0000
  C   C110      1.0  0.27578  0.60551  0.41647  1.0000
  H   H81       1.0  0.30278  0.59552  0.43438  1.0000
  H   H82       1.0  0.19100  0.80157  0.43953  1.0000
  C   C111      1.0  0.14703  0.19025  0.36826  1.0000
  C   C112      1.0  0.10589  0.18509  0.38207  1.0000
  C   C113      1.0  0.09019  0.15412  0.38611  1.0000
  H   H83       1.0  0.08674  0.20398  0.39051  1.0000
  H   H84       1.0  0.06020  0.15193  0.39648  1.0000
  N   N5        1.0  0.15682  0.22158  0.36822  1.0000
  C   C114      1.0  0.80133  0.83600  0.36822  1.0000
  C   C115      1.0  0.84277  0.84085  0.38193  1.0000
  C   C116      1.0  0.85857  0.87173  0.38596  1.0000
  H   H85       1.0  0.86212  0.82177  0.39032  1.0000
  H   H86       1.0  0.88879  0.87368  0.39626  1.0000
  N   N6        1.0  0.79154  0.80467  0.36816  1.0000
  C   C117      1.0  0.84475  0.11443  0.39915  1.0000
  C   C118      1.0  0.84120  0.13436  0.47369  1.0000
  C   C119      1.0  0.82383  0.16543  0.46484  1.0000
  C   C120      1.0  0.81403  0.17815  0.37650  1.0000
  H   H87       1.0  0.85004  0.12544  0.53630  1.0000
  C   C121      1.0  0.82104  0.18503  0.54661  1.0000
  H   H88       1.0  0.83339  0.17277  0.60737  1.0000
  H   H89       1.0  0.78969  0.19051  0.55902  1.0000
  H   H90       1.0  0.83757  0.20730  0.53706  1.0000
  N   N7        1.0  0.86170  0.08504  0.41340  1.0000
  N   N8        1.0  0.80265  0.20887  0.35630  1.0000
  C   C122      1.0  0.10432  0.91119  0.39872  1.0000
  C   C123      1.0  0.10960  0.88966  0.47337  1.0000
  C   C124      1.0  0.12672  0.85877  0.46458  1.0000
  C   C125      1.0  0.13451  0.84795  0.37627  1.0000
  H   H91       1.0  0.10212  0.89722  0.53595  1.0000
  C   C126      1.0  0.13134  0.83740  0.54642  1.0000
  H   H92       1.0  0.12036  0.84835  0.60717  1.0000
  H   H93       1.0  0.16296  0.83164  0.55875  1.0000
  H   H94       1.0  0.11458  0.81534  0.53702  1.0000
  N   N9        1.0  0.08767  0.94027  0.41284  1.0000
  N   N10       1.0  0.14543  0.81766  0.35615  1.0000
  C   C127      1.0  0.24796  0.55253  0.38248  1.0000
  C   C128      1.0  0.28497  0.53565  0.38517  1.0000
  C   C129      1.0  0.28711  0.50289  0.36902  1.0000
  H   H95       1.0  0.31162  0.54687  0.39612  1.0000
  H   H96       1.0  0.31480  0.49239  0.37367  1.0000
  N   N11       1.0  0.24610  0.58496  0.39307  1.0000
  C   C130      1.0  0.70069  0.47341  0.38240  1.0000
  C   C131      1.0  0.66374  0.49024  0.38500  1.0000
  C   C132      1.0  0.66126  0.52335  0.36885  1.0000
  H   H97       1.0  0.63734  0.47879  0.39606  1.0000
  H   H98       1.0  0.63368  0.53376  0.37358  1.0000
  N   N12       1.0  0.70279  0.44076  0.39300  1.0000
  C   C133      1.0  0.02347  0.32355  0.36884  1.0000
  C   C134      1.0  0.00511  0.29329  0.37551  1.0000
  C   C135      1.0  0.96289  0.28953  0.37123  1.0000
  C   C136      1.0  0.93755  0.31696  0.35886  1.0000
  H   H99       1.0  0.02308  0.27340  0.38350  1.0000
  C   C137      1.0  0.94611  0.25668  0.37954  1.0000
  H   H100      1.0  0.96913  0.23833  0.39268  1.0000
  H   H101      1.0  0.93034  0.25098  0.31675  1.0000
  H   H102      1.0  0.92525  0.25532  0.43520  1.0000
  N   N13       1.0  0.06431  0.32344  0.37172  1.0000
  N   N14       1.0  0.89697  0.31248  0.35412  1.0000
  C   C138      1.0  0.92491  0.70269  0.36886  1.0000
  C   C139      1.0  0.94342  0.73280  0.37553  1.0000
  C   C140      1.0  0.98555  0.73665  0.37121  1.0000
  C   C141      1.0  0.01061  0.70951  0.35880  1.0000
  H   H103      1.0  0.92563  0.75251  0.38355  1.0000
  C   C142      1.0  0.00251  0.76932  0.37951  1.0000
  H   H104      1.0  0.97978  0.78738  0.39269  1.0000
  H   H105      1.0  0.01689  0.77642  0.31671  1.0000
  H   H106      1.0  0.02459  0.76945  0.43515  1.0000
  N   N15       1.0  0.88413  0.70273  0.37173  1.0000
  N   N16       1.0  0.05109  0.71410  0.35400  1.0000
  C   C143      1.0  0.43687  0.33488  0.35570  1.0000
  C   C144      1.0  0.52274  0.32893  0.37732  1.0000
  C   C145      1.0  0.49730  0.32876  0.45250  1.0000
  C   C146      1.0  0.45508  0.32967  0.44196  1.0000
  H   H107      1.0  0.50950  0.32718  0.51662  1.0000
  H   H108      1.0  0.43797  0.32982  0.49833  1.0000
  N   N17       1.0  0.39697  0.34134  0.34215  1.0000
  N   N18       1.0  0.56305  0.33006  0.39626  1.0000
  C   C147      1.0  0.51119  0.69163  0.35562  1.0000
  C   C148      1.0  0.42580  0.69709  0.37727  1.0000
  C   C149      1.0  0.45290  0.69562  0.45243  1.0000
  C   C150      1.0  0.49489  0.69500  0.44187  1.0000
  H   H109      1.0  0.44211  0.69580  0.51655  1.0000
  H   H110      1.0  0.51325  0.69356  0.49821  1.0000
  N   N19       1.0  0.55079  0.68547  0.34203  1.0000
  N   N20       1.0  0.38591  0.69556  0.39624  1.0000
