data_image0
_chemical_formula_structural       CNC2NC4NC18H14C2NC16H12C3NC2NC5NC4NC18H14CNC16H12C11H11CNCNC4NC16H13C3HCH3C2HCH3C2HCH3C2HCH3C2HCH3C2HCH3C2HCH3C2HCH3C3HCH3C4HCH3C2HCH3C2HCH3C7NC12H12C2NC3NC3NC18H14C12H12C3NC3NC3NC18H14C3NC3NC2NC5NC20H15C8NC14H13C3HCH3C4HCH3C4HCH3C4HCH3C4HCH3C4HCH3C4HCH3C4HCH3C3HCH3C2HCH3C4HCH3C4HCH3
_chemical_formula_sum              "C360 N24 H252"
_cell_length_a       57.0239
_cell_length_b       57.0238
_cell_length_c       14.9708
_cell_angle_alpha    90.0018
_cell_angle_beta     89.9654
_cell_angle_gamma    120

_space_group_name_H-M_alt    "P 1"
_space_group_IT_number       1

loop_
  _space_group_symop_operation_xyz
  'x, y, z'

loop_
  _atom_site_type_symbol
  _atom_site_label
  _atom_site_symmetry_multiplicity
  _atom_site_fract_x
  _atom_site_fract_y
  _atom_site_fract_z
  _atom_site_occupancy
  C   C1        1.0  0.28697  0.52929  0.29578  1.0000
  N   N1        1.0  0.27872  0.48871  0.33446  1.0000
  C   C2        1.0  0.30585  0.50357  0.32186  1.0000
  C   C3        1.0  0.32580  0.49598  0.33567  1.0000
  N   N2        1.0  0.29564  0.44619  0.33482  1.0000
  C   C4        1.0  0.29747  0.42365  0.34637  1.0000
  C   C5        1.0  0.32450  0.43257  0.36786  1.0000
  C   C6        1.0  0.33836  0.46051  0.36748  1.0000
  C   C7        1.0  0.27659  0.39635  0.33442  1.0000
  N   N3        1.0  0.23651  0.40342  0.33478  1.0000
  C   C8        1.0  0.20929  0.38852  0.32365  1.0000
  C   C9        1.0  0.22813  0.36253  0.30083  1.0000
  C   C10       1.0  0.21790  0.46887  0.34669  1.0000
  C   C11       1.0  0.23892  0.49611  0.33616  1.0000
  C   C12       1.0  0.23227  0.51719  0.33915  1.0000
  C   C13       1.0  0.21609  0.51952  0.27209  1.0000
  C   C14       1.0  0.21160  0.54166  0.27124  1.0000
  C   C15       1.0  0.22387  0.56241  0.33581  1.0000
  C   C16       1.0  0.14591  0.37161  0.25551  1.0000
  C   C17       1.0  0.11774  0.35378  0.25679  1.0000
  C   C18       1.0  0.28438  0.37605  0.33100  1.0000
  C   C19       1.0  0.30487  0.33950  0.33446  1.0000
  C   C20       1.0  0.31258  0.35908  0.26604  1.0000
  C   C21       1.0  0.30214  0.37680  0.26352  1.0000
  C   C22       1.0  0.35343  0.51691  0.33694  1.0000
  C   C23       1.0  0.36938  0.52355  0.25879  1.0000
  C   C24       1.0  0.39574  0.54609  0.25762  1.0000
  C   C25       1.0  0.40689  0.56238  0.33457  1.0000
  H   H1        1.0  0.40663  0.55074  0.19948  1.0000
  H   H2        1.0  0.36157  0.51259  0.20141  1.0000
  H   H3        1.0  0.28510  0.54575  0.28053  1.0000
  H   H4        1.0  0.26983  0.47084  0.36075  1.0000
  H   H5        1.0  0.24553  0.42158  0.35864  1.0000
  H   H6        1.0  0.35859  0.47248  0.37999  1.0000
  H   H7        1.0  0.33310  0.42094  0.38112  1.0000
  H   H8        1.0  0.30860  0.39114  0.21417  1.0000
  H   H9        1.0  0.32636  0.36100  0.21852  1.0000
  H   H10       1.0  0.22996  0.34594  0.28753  1.0000
  H   H11       1.0  0.15482  0.38206  0.19811  1.0000
  H   H12       1.0  0.10690  0.35189  0.20009  1.0000
  H   H13       1.0  0.20014  0.54304  0.22114  1.0000
  H   H14       1.0  0.20800  0.50545  0.22207  1.0000
  C   C26       1.0  0.54042  0.75826  0.29376  1.0000
  C   C27       1.0  0.56608  0.80282  0.32048  1.0000
  N   N4        1.0  0.62336  0.84995  0.33503  1.0000
  C   C28       1.0  0.64588  0.87431  0.34687  1.0000
  C   C29       1.0  0.63693  0.89239  0.36864  1.0000
  C   C30       1.0  0.60899  0.87829  0.36824  1.0000
  C   C31       1.0  0.67319  0.88075  0.33483  1.0000
  C   C32       1.0  0.68105  0.82128  0.32424  1.0000
  C   C33       1.0  0.70704  0.86612  0.30139  1.0000
  C   C34       1.0  0.60067  0.74957  0.34662  1.0000
  C   C35       1.0  0.55006  0.69705  0.27237  1.0000
  C   C36       1.0  0.52792  0.67043  0.27170  1.0000
  C   C37       1.0  0.69794  0.77479  0.25596  1.0000
  C   C38       1.0  0.71578  0.76446  0.25721  1.0000
  C   C39       1.0  0.69346  0.90884  0.33143  1.0000
  C   C40       1.0  0.71041  0.95400  0.26646  1.0000
  C   C41       1.0  0.69270  0.92584  0.26399  1.0000
  C   C42       1.0  0.54601  0.84625  0.25860  1.0000
  C   C43       1.0  0.52347  0.85008  0.25743  1.0000
  H   H15       1.0  0.51884  0.85633  0.19931  1.0000
  H   H16       1.0  0.55700  0.84944  0.20125  1.0000
  H   H17       1.0  0.52388  0.73989  0.27948  1.0000
  H   H18       1.0  0.59699  0.88652  0.38080  1.0000
  H   H19       1.0  0.64855  0.91260  0.38206  1.0000
  H   H20       1.0  0.67834  0.91796  0.21476  1.0000
  H   H21       1.0  0.70847  0.96586  0.21903  1.0000
  H   H22       1.0  0.72365  0.88455  0.28830  1.0000
  H   H23       1.0  0.68752  0.77326  0.19853  1.0000
  H   H24       1.0  0.71769  0.75552  0.20051  1.0000
  H   H25       1.0  0.52658  0.65752  0.22190  1.0000
  H   H26       1.0  0.56420  0.70296  0.22250  1.0000
  C   C44       1.0  0.28718  0.75839  0.29537  1.0000
  C   C45       1.0  0.31133  0.78261  0.29454  1.0000
  C   C46       1.0  0.30614  0.80309  0.32102  1.0000
  N   N5        1.0  0.27898  0.79084  0.33338  1.0000
  C   C47       1.0  0.26673  0.76371  0.32088  1.0000
  C   C48       1.0  0.23923  0.74376  0.33523  1.0000
  N   N6        1.0  0.21958  0.77391  0.33474  1.0000
  C   C49       1.0  0.19523  0.77208  0.34644  1.0000
  C   C50       1.0  0.17710  0.74504  0.36778  1.0000
  C   C51       1.0  0.19119  0.73118  0.36737  1.0000
  C   C52       1.0  0.18880  0.79296  0.33432  1.0000
  C   C53       1.0  0.20872  0.82075  0.32352  1.0000
  N   N7        1.0  0.23594  0.83309  0.33532  1.0000
  C   C54       1.0  0.24829  0.86030  0.32398  1.0000
  C   C55       1.0  0.22765  0.86572  0.30225  1.0000
  C   C56       1.0  0.20344  0.84147  0.30137  1.0000
  C   C57       1.0  0.27605  0.88015  0.33486  1.0000
  N   N8        1.0  0.29565  0.84984  0.33447  1.0000
  C   C58       1.0  0.32001  0.85164  0.34607  1.0000
  C   C59       1.0  0.32621  0.83059  0.33569  1.0000
  C   C60       1.0  0.35393  0.83720  0.33883  1.0000
  C   C61       1.0  0.37252  0.85345  0.27198  1.0000
  C   C62       1.0  0.39913  0.85791  0.27127  1.0000
  C   C63       1.0  0.40753  0.84555  0.33580  1.0000
  C   C64       1.0  0.28355  0.90804  0.33335  1.0000
  C   C65       1.0  0.29485  0.92370  0.25547  1.0000
  C   C66       1.0  0.30513  0.95186  0.25671  1.0000
  C   C67       1.0  0.30478  0.96522  0.33603  1.0000
  C   C68       1.0  0.16071  0.78515  0.33082  1.0000
  C   C69       1.0  0.10367  0.76462  0.33414  1.0000
  C   C70       1.0  0.11559  0.75697  0.26568  1.0000
  C   C71       1.0  0.14375  0.76743  0.26326  1.0000
  C   C72       1.0  0.23252  0.71613  0.33643  1.0000
  C   C73       1.0  0.22332  0.70025  0.25817  1.0000
  C   C74       1.0  0.21950  0.67389  0.25697  1.0000
  C   C75       1.0  0.22450  0.66266  0.33402  1.0000
  H   H27       1.0  0.21332  0.66303  0.19879  1.0000
  H   H28       1.0  0.22027  0.70811  0.20074  1.0000
  H   H29       1.0  0.32968  0.78445  0.27991  1.0000
  H   H30       1.0  0.27010  0.79970  0.36064  1.0000
  H   H31       1.0  0.24515  0.82397  0.35772  1.0000
  H   H32       1.0  0.18292  0.71093  0.37971  1.0000
  H   H33       1.0  0.15687  0.73643  0.38094  1.0000
  H   H34       1.0  0.15167  0.76101  0.21392  1.0000
  H   H35       1.0  0.10376  0.74320  0.21816  1.0000
  H   H36       1.0  0.18502  0.83965  0.28809  1.0000
  H   H37       1.0  0.29645  0.91483  0.19809  1.0000
  H   H38       1.0  0.31417  0.96274  0.20011  1.0000
  H   H39       1.0  0.41204  0.86945  0.22136  1.0000
  H   H40       1.0  0.36660  0.86162  0.22198  1.0000
  C   C76       1.0  0.78650  0.54315  0.32236  1.0000
  N   N9        1.0  0.79673  0.60054  0.33553  1.0000
  C   C77       1.0  0.79490  0.62308  0.34701  1.0000
  C   C78       1.0  0.76786  0.61417  0.36832  1.0000
  C   C79       1.0  0.75398  0.58622  0.36794  1.0000
  C   C80       1.0  0.81580  0.65038  0.33501  1.0000
  C   C81       1.0  0.88313  0.65819  0.32452  1.0000
  C   C82       1.0  0.86432  0.68424  0.30207  1.0000
  C   C83       1.0  0.87445  0.57779  0.34689  1.0000
  C   C84       1.0  0.87622  0.52711  0.27252  1.0000
  C   C85       1.0  0.88068  0.50495  0.27162  1.0000
  C   C86       1.0  0.94647  0.67507  0.25580  1.0000
  C   C87       1.0  0.97464  0.69290  0.25692  1.0000
  C   C88       1.0  0.80801  0.67067  0.33150  1.0000
  C   C89       1.0  0.77987  0.68765  0.26633  1.0000
  C   C90       1.0  0.79035  0.66997  0.26383  1.0000
  C   C91       1.0  0.72306  0.52315  0.25916  1.0000
  C   C92       1.0  0.69669  0.50062  0.25797  1.0000
  H   H41       1.0  0.68586  0.49595  0.19976  1.0000
  H   H42       1.0  0.73093  0.53406  0.20171  1.0000
  H   H43       1.0  0.80720  0.50089  0.28158  1.0000
  H   H44       1.0  0.73374  0.57425  0.38032  1.0000
  H   H45       1.0  0.75925  0.62580  0.38140  1.0000
  H   H46       1.0  0.78390  0.65561  0.21456  1.0000
  H   H47       1.0  0.76612  0.68574  0.21877  1.0000
  H   H48       1.0  0.86251  0.70084  0.28884  1.0000
  H   H49       1.0  0.93756  0.66461  0.19844  1.0000
  H   H50       1.0  0.98547  0.69477  0.20018  1.0000
  H   H51       1.0  0.89217  0.50359  0.22156  1.0000
  H   H52       1.0  0.88431  0.54118  0.22245  1.0000
  C   C93       1.0  0.44650  0.17239  0.34701  1.0000
  C   C94       1.0  0.45541  0.15426  0.36850  1.0000
  C   C95       1.0  0.48336  0.16835  0.36820  1.0000
  C   C96       1.0  0.54235  0.34965  0.27303  1.0000
  C   C97       1.0  0.56448  0.37628  0.27219  1.0000
  C   C98       1.0  0.39444  0.27188  0.25604  1.0000
  C   C99       1.0  0.37661  0.28221  0.25722  1.0000
  C   C100      1.0  0.38198  0.09275  0.26629  1.0000
  C   C101      1.0  0.39970  0.12091  0.26391  1.0000
  C   C102      1.0  0.54639  0.20039  0.25959  1.0000
  C   C103      1.0  0.56893  0.19658  0.25837  1.0000
  H   H53       1.0  0.57357  0.19034  0.20023  1.0000
  H   H54       1.0  0.53543  0.19725  0.20224  1.0000
  H   H55       1.0  0.56860  0.30689  0.28154  1.0000
  H   H56       1.0  0.49533  0.16009  0.38073  1.0000
  H   H57       1.0  0.41407  0.12882  0.21463  1.0000
  H   H58       1.0  0.38393  0.08091  0.21875  1.0000
  H   H59       1.0  0.36880  0.16219  0.28791  1.0000
  H   H60       1.0  0.40491  0.27342  0.19865  1.0000
  H   H61       1.0  0.37472  0.29115  0.20048  1.0000
  H   H62       1.0  0.56587  0.38913  0.22208  1.0000
  H   H63       1.0  0.52829  0.34367  0.22298  1.0000
  C   C104      1.0  0.78111  0.26405  0.29390  1.0000
  N   N10       1.0  0.81344  0.25579  0.33281  1.0000
  C   C105      1.0  0.82567  0.28293  0.32050  1.0000
  N   N11       1.0  0.87280  0.27278  0.33494  1.0000
  C   C106      1.0  0.89716  0.27462  0.34671  1.0000
  C   C107      1.0  0.91524  0.30164  0.36845  1.0000
  C   C108      1.0  0.90114  0.31548  0.36808  1.0000
  C   C109      1.0  0.90360  0.25375  0.33467  1.0000
  N   N12       1.0  0.85645  0.21363  0.33537  1.0000
  C   C110      1.0  0.84412  0.18642  0.32414  1.0000
  C   C111      1.0  0.88897  0.20527  0.30123  1.0000
  C   C112      1.0  0.77241  0.19509  0.34670  1.0000
  C   C113      1.0  0.76621  0.21611  0.33597  1.0000
  C   C114      1.0  0.71988  0.19319  0.27265  1.0000
  C   C115      1.0  0.69326  0.18872  0.27208  1.0000
  C   C116      1.0  0.68489  0.20116  0.33643  1.0000
  C   C117      1.0  0.79759  0.12304  0.25593  1.0000
  C   C118      1.0  0.78726  0.09487  0.25719  1.0000
  C   C119      1.0  0.93169  0.26156  0.33121  1.0000
  C   C120      1.0  0.98873  0.28206  0.33449  1.0000
  C   C121      1.0  0.97685  0.28978  0.26616  1.0000
  C   C122      1.0  0.94869  0.27933  0.26374  1.0000
  C   C123      1.0  0.85982  0.33052  0.33674  1.0000
  C   C124      1.0  0.86905  0.34644  0.25854  1.0000
  C   C125      1.0  0.87288  0.37280  0.25742  1.0000
  H   H64       1.0  0.87909  0.38369  0.19928  1.0000
  H   H65       1.0  0.87220  0.33863  0.20113  1.0000
  H   H66       1.0  0.76274  0.26222  0.27968  1.0000
  H   H67       1.0  0.82227  0.24706  0.36130  1.0000
  H   H68       1.0  0.90937  0.33571  0.38063  1.0000
  H   H69       1.0  0.93545  0.31023  0.38183  1.0000
  H   H70       1.0  0.94080  0.28581  0.21452  1.0000
  H   H71       1.0  0.98870  0.30359  0.21871  1.0000
  H   H72       1.0  0.90739  0.20710  0.28811  1.0000
  H   H73       1.0  0.79603  0.13194  0.19854  1.0000
  H   H74       1.0  0.77828  0.08402  0.20052  1.0000
  H   H75       1.0  0.68034  0.17714  0.22231  1.0000
  H   H76       1.0  0.72578  0.18497  0.22276  1.0000
  C   C126      1.0  0.22263  0.63678  0.33120  1.0000
  C   C127      1.0  0.23651  0.60607  0.26374  1.0000
  C   C128      1.0  0.23636  0.63079  0.26465  1.0000
  H   H77       1.0  0.24748  0.64531  0.21800  1.0000
  C   C129      1.0  0.25307  0.60220  0.19428  1.0000
  H   H78       1.0  0.26784  0.59806  0.22610  1.0000
  H   H79       1.0  0.26424  0.61993  0.15155  1.0000
  H   H80       1.0  0.23999  0.58524  0.15114  1.0000
  C   C130      1.0  0.46350  0.63094  0.26390  1.0000
  C   C131      1.0  0.43879  0.60606  0.26490  1.0000
  H   H81       1.0  0.42431  0.60260  0.21807  1.0000
  C   C132      1.0  0.46742  0.65129  0.19410  1.0000
  H   H82       1.0  0.47150  0.67022  0.22562  1.0000
  H   H83       1.0  0.44973  0.64467  0.15118  1.0000
  H   H84       1.0  0.48443  0.65514  0.15119  1.0000
  C   C133      1.0  0.43862  0.83300  0.26379  1.0000
  C   C134      1.0  0.46349  0.83315  0.26479  1.0000
  H   H85       1.0  0.46694  0.82209  0.21805  1.0000
  C   C135      1.0  0.41827  0.81652  0.19412  1.0000
  H   H86       1.0  0.39932  0.80171  0.22573  1.0000
  H   H87       1.0  0.42487  0.80540  0.15132  1.0000
  H   H88       1.0  0.41443  0.82965  0.15105  1.0000
  C   C136      1.0  0.85579  0.44056  0.26427  1.0000
  C   C137      1.0  0.85594  0.41584  0.26517  1.0000
  H   H89       1.0  0.84485  0.40133  0.21851  1.0000
  C   C138      1.0  0.83925  0.44444  0.19483  1.0000
  H   H90       1.0  0.82447  0.44858  0.22667  1.0000
  H   H91       1.0  0.82808  0.42671  0.15214  1.0000
  H   H92       1.0  0.85234  0.46139  0.15164  1.0000
  C   C139      1.0  0.62889  0.41579  0.26475  1.0000
  C   C140      1.0  0.65360  0.44067  0.26568  1.0000
  H   H93       1.0  0.66813  0.44408  0.21904  1.0000
  C   C141      1.0  0.62504  0.39538  0.19532  1.0000
  H   H94       1.0  0.62090  0.37647  0.22715  1.0000
  H   H95       1.0  0.64278  0.40195  0.15261  1.0000
  H   H96       1.0  0.60809  0.39150  0.15215  1.0000
  C   C142      1.0  0.65377  0.21365  0.26439  1.0000
  C   C143      1.0  0.62889  0.21348  0.26546  1.0000
  H   H97       1.0  0.62543  0.22450  0.21864  1.0000
  C   C144      1.0  0.67411  0.23008  0.19452  1.0000
  H   H98       1.0  0.69305  0.24492  0.22595  1.0000
  H   H99       1.0  0.66749  0.24115  0.15161  1.0000
  H   H100      1.0  0.67795  0.21691  0.15160  1.0000
  C   C145      1.0  0.03223  0.28925  0.27281  1.0000
  C   C146      1.0  0.06088  0.30435  0.27334  1.0000
  H   H101      1.0  0.07141  0.30075  0.22494  1.0000
  C   C147      1.0  0.01943  0.26859  0.20080  1.0000
  H   H102      1.0  0.99751  0.25623  0.20692  1.0000
  H   H103      1.0  0.02751  0.25481  0.20226  1.0000
  H   H104      1.0  0.02400  0.27865  0.13588  1.0000
  C   C148      1.0  0.78035  0.74354  0.27328  1.0000
  C   C149      1.0  0.76524  0.75707  0.27383  1.0000
  H   H105      1.0  0.76888  0.77125  0.22552  1.0000
  C   C150      1.0  0.80108  0.75145  0.20139  1.0000
  H   H106      1.0  0.81344  0.74191  0.20751  1.0000
  H   H107      1.0  0.81484  0.77332  0.20302  1.0000
  H   H108      1.0  0.79107  0.74601  0.13641  1.0000
  C   C151      1.0  0.31760  0.99408  0.33905  1.0000
  C   C152      1.0  0.32608  0.03736  0.27284  1.0000
  C   C153      1.0  0.31254  0.00872  0.27329  1.0000
  H   H109      1.0  0.29843  0.99820  0.22486  1.0000
  C   C154      1.0  0.31826  0.05020  0.20082  1.0000
  H   H110      1.0  0.32780  0.07211  0.20700  1.0000
  H   H111      1.0  0.29639  0.04210  0.20223  1.0000
  H   H112      1.0  0.32378  0.04566  0.13591  1.0000
  C   C155      1.0  0.01691  0.72259  0.33904  1.0000
  C   C156      1.0  0.07488  0.75220  0.33934  1.0000
  C   C157      1.0  0.06016  0.75742  0.27267  1.0000
  C   C158      1.0  0.03152  0.74231  0.27330  1.0000
  H   H113      1.0  0.02098  0.74594  0.22502  1.0000
  C   C159      1.0  0.07296  0.77812  0.20072  1.0000
  H   H114      1.0  0.09488  0.79049  0.20677  1.0000
  H   H115      1.0  0.06487  0.79190  0.20236  1.0000
  H   H116      1.0  0.06840  0.76810  0.13576  1.0000
  C   C160      1.0  0.31206  0.30318  0.27301  1.0000
  C   C161      1.0  0.32717  0.28963  0.27363  1.0000
  H   H117      1.0  0.32356  0.27548  0.22530  1.0000
  C   C162      1.0  0.29140  0.29530  0.20100  1.0000
  H   H118      1.0  0.27904  0.30485  0.20706  1.0000
  H   H119      1.0  0.27763  0.27344  0.20255  1.0000
  H   H120      1.0  0.30147  0.30078  0.13607  1.0000
  C   C163      1.0  0.76632  0.00938  0.27311  1.0000
  C   C164      1.0  0.77987  0.03802  0.27365  1.0000
  H   H121      1.0  0.79400  0.04856  0.22522  1.0000
  C   C165      1.0  0.77418  0.99657  0.20106  1.0000
  H   H122      1.0  0.76463  0.97465  0.20718  1.0000
  H   H123      1.0  0.79604  0.00466  0.20246  1.0000
  H   H124      1.0  0.76868  0.00113  0.13616  1.0000
  C   C166      1.0  0.31118  0.52935  0.29645  1.0000
  C   C167      1.0  0.26646  0.50359  0.32185  1.0000
  C   C168      1.0  0.31984  0.46889  0.34687  1.0000
  C   C169      1.0  0.24882  0.38850  0.32334  1.0000
  C   C170      1.0  0.20388  0.36250  0.30152  1.0000
  C   C171      1.0  0.18943  0.39640  0.33500  1.0000
  C   C172      1.0  0.19547  0.42359  0.34594  1.0000
  N   N13       1.0  0.21971  0.44631  0.33501  1.0000
  C   C173      1.0  0.19083  0.46009  0.36651  1.0000
  C   C174      1.0  0.17694  0.43214  0.36525  1.0000
  C   C175      1.0  0.23973  0.55992  0.40359  1.0000
  C   C176      1.0  0.24355  0.53741  0.40595  1.0000
  C   C177      1.0  0.16153  0.37600  0.33344  1.0000
  C   C178      1.0  0.10435  0.34010  0.33613  1.0000
  C   C179      1.0  0.12024  0.34429  0.41355  1.0000
  C   C180      1.0  0.14846  0.36193  0.41228  1.0000
  C   C181      1.0  0.27623  0.35608  0.39837  1.0000
  C   C182      1.0  0.28605  0.33780  0.39937  1.0000
  C   C183      1.0  0.36452  0.53285  0.41431  1.0000
  C   C184      1.0  0.39099  0.55518  0.41325  1.0000
  H   H125      1.0  0.39808  0.56692  0.46941  1.0000
  H   H126      1.0  0.35313  0.52875  0.47117  1.0000
  H   H127      1.0  0.32958  0.54583  0.28198  1.0000
  H   H128      1.0  0.26368  0.35522  0.44878  1.0000
  H   H129      1.0  0.28016  0.32387  0.44988  1.0000
  H   H130      1.0  0.18539  0.34590  0.28907  1.0000
  H   H131      1.0  0.18225  0.47179  0.37863  1.0000
  H   H132      1.0  0.15663  0.42026  0.37676  1.0000
  H   H133      1.0  0.15924  0.36520  0.47013  1.0000
  H   H134      1.0  0.11129  0.33482  0.47225  1.0000
  H   H135      1.0  0.25560  0.53645  0.45482  1.0000
  H   H136      1.0  0.24911  0.57478  0.45070  1.0000
  C   C185      1.0  0.54036  0.78241  0.29447  1.0000
  C   C186      1.0  0.56605  0.76344  0.32057  1.0000
  N   N14       1.0  0.58100  0.79059  0.33279  1.0000
  C   C187      1.0  0.57357  0.83028  0.33549  1.0000
  C   C188      1.0  0.60064  0.85140  0.34733  1.0000
  C   C189      1.0  0.68105  0.86083  0.32388  1.0000
  N   N15       1.0  0.66615  0.83360  0.33548  1.0000
  C   C190      1.0  0.70709  0.84192  0.30232  1.0000
  C   C191      1.0  0.67314  0.79353  0.33543  1.0000
  C   C192      1.0  0.64594  0.77238  0.34614  1.0000
  N   N16       1.0  0.62324  0.77393  0.33491  1.0000
  C   C193      1.0  0.60942  0.73129  0.36691  1.0000
  C   C194      1.0  0.63736  0.74533  0.36582  1.0000
  C   C195      1.0  0.57344  0.74337  0.33585  1.0000
  C   C196      1.0  0.55233  0.71565  0.33903  1.0000
  C   C197      1.0  0.50709  0.66205  0.33603  1.0000
  C   C198      1.0  0.50951  0.68050  0.40337  1.0000
  C   C199      1.0  0.53205  0.70682  0.40564  1.0000
  C   C200      1.0  0.69353  0.78602  0.33389  1.0000
  C   C201      1.0  0.72943  0.76475  0.33655  1.0000
  C   C202      1.0  0.72522  0.77644  0.41399  1.0000
  C   C203      1.0  0.70757  0.78701  0.41273  1.0000
  C   C204      1.0  0.71344  0.92068  0.39873  1.0000
  C   C205      1.0  0.73172  0.94878  0.39968  1.0000
  C   C206      1.0  0.73001  0.96588  0.33479  1.0000
  C   C207      1.0  0.55264  0.83697  0.33676  1.0000
  C   C208      1.0  0.53666  0.83210  0.41411  1.0000
  C   C209      1.0  0.50715  0.84494  0.33438  1.0000
  C   C210      1.0  0.51432  0.83623  0.41304  1.0000
  H   H137      1.0  0.50257  0.83159  0.46923  1.0000
  H   H138      1.0  0.54075  0.82481  0.47098  1.0000
  H   H139      1.0  0.52381  0.78429  0.28092  1.0000
  H   H140      1.0  0.59854  0.79942  0.36132  1.0000
  H   H141      1.0  0.64790  0.82445  0.35859  1.0000
  H   H142      1.0  0.71433  0.90899  0.44905  1.0000
  H   H143      1.0  0.74567  0.95682  0.45004  1.0000
  H   H144      1.0  0.72369  0.84001  0.28982  1.0000
  H   H145      1.0  0.59769  0.71103  0.37940  1.0000
  H   H146      1.0  0.64923  0.73691  0.37777  1.0000
  H   H147      1.0  0.70430  0.79453  0.47058  1.0000
  H   H148      1.0  0.73466  0.77695  0.47269  1.0000
  H   H149      1.0  0.53294  0.71991  0.45410  1.0000
  H   H150      1.0  0.49460  0.67508  0.45030  1.0000
  C   C211      1.0  0.21811  0.74972  0.34684  1.0000
  C   C212      1.0  0.29720  0.87410  0.34542  1.0000
  C   C213      1.0  0.33830  0.87868  0.36606  1.0000
  C   C214      1.0  0.32426  0.89259  0.36492  1.0000
  C   C215      1.0  0.38909  0.82961  0.40334  1.0000
  C   C216      1.0  0.36278  0.82584  0.40560  1.0000
  C   C217      1.0  0.29303  0.94929  0.41342  1.0000
  C   C218      1.0  0.28244  0.92108  0.41211  1.0000
  C   C219      1.0  0.14883  0.79322  0.39826  1.0000
  C   C220      1.0  0.12073  0.78340  0.39912  1.0000
  C   C221      1.0  0.23725  0.70498  0.41387  1.0000
  C   C222      1.0  0.23312  0.67850  0.41276  1.0000
  H   H151      1.0  0.23762  0.67134  0.46906  1.0000
  H   H152      1.0  0.24445  0.71631  0.47083  1.0000
  H   H153      1.0  0.28528  0.73998  0.28123  1.0000
  H   H154      1.0  0.16048  0.80576  0.44869  1.0000
  H   H155      1.0  0.11265  0.78923  0.44967  1.0000
  H   H156      1.0  0.22956  0.88422  0.28965  1.0000
  H   H157      1.0  0.35856  0.88722  0.37856  1.0000
  H   H158      1.0  0.33268  0.91288  0.37675  1.0000
  H   H159      1.0  0.27491  0.91028  0.46996  1.0000
  H   H160      1.0  0.29246  0.95822  0.47210  1.0000
  H   H161      1.0  0.34970  0.81372  0.45429  1.0000
  H   H162      1.0  0.39452  0.82019  0.45045  1.0000
  C   C223      1.0  0.78116  0.51735  0.29715  1.0000
  C   C224      1.0  0.80536  0.51739  0.29648  1.0000
  C   C225      1.0  0.82587  0.54308  0.32258  1.0000
  N   N17       1.0  0.81363  0.55799  0.33498  1.0000
  C   C226      1.0  0.76656  0.55074  0.33625  1.0000
  C   C227      1.0  0.77252  0.57783  0.34754  1.0000
  C   C228      1.0  0.84359  0.65823  0.32422  1.0000
  N   N18       1.0  0.85592  0.64334  0.33599  1.0000
  C   C229      1.0  0.88856  0.68426  0.30290  1.0000
  C   C230      1.0  0.90296  0.65027  0.33550  1.0000
  C   C231      1.0  0.89691  0.62307  0.34624  1.0000
  N   N19       1.0  0.87265  0.60036  0.33541  1.0000
  C   C232      1.0  0.90152  0.58655  0.36655  1.0000
  C   C233      1.0  0.91543  0.61450  0.36538  1.0000
  C   C234      1.0  0.85341  0.55055  0.33669  1.0000
  C   C235      1.0  0.86004  0.52945  0.33964  1.0000
  C   C236      1.0  0.86842  0.48421  0.33630  1.0000
  C   C237      1.0  0.85256  0.48672  0.40412  1.0000
  C   C238      1.0  0.84877  0.50925  0.40653  1.0000
  C   C239      1.0  0.93086  0.67065  0.33384  1.0000
  C   C240      1.0  0.98804  0.70655  0.33622  1.0000
  C   C241      1.0  0.97217  0.70234  0.41376  1.0000
  C   C242      1.0  0.94395  0.68471  0.41263  1.0000
  C   C243      1.0  0.81608  0.69061  0.39894  1.0000
  C   C244      1.0  0.80627  0.70890  0.39982  1.0000
  C   C245      1.0  0.78751  0.70720  0.33480  1.0000
  C   C246      1.0  0.73892  0.52984  0.33745  1.0000
  C   C247      1.0  0.72774  0.51396  0.41493  1.0000
  C   C248      1.0  0.68544  0.48439  0.33503  1.0000
  C   C249      1.0  0.70127  0.49161  0.41380  1.0000
  H   H163      1.0  0.69410  0.47994  0.47010  1.0000
  H   H164      1.0  0.73907  0.51808  0.47189  1.0000
  H   H165      1.0  0.76275  0.50086  0.28295  1.0000
  H   H166      1.0  0.82252  0.57586  0.36119  1.0000
  H   H167      1.0  0.84679  0.62502  0.35839  1.0000
  H   H168      1.0  0.82857  0.69144  0.44947  1.0000
  H   H169      1.0  0.81208  0.72278  0.45040  1.0000
  H   H170      1.0  0.90706  0.70084  0.29031  1.0000
  H   H171      1.0  0.91007  0.57484  0.37887  1.0000
  H   H172      1.0  0.93572  0.62636  0.37696  1.0000
  H   H173      1.0  0.93318  0.68143  0.47056  1.0000
  H   H174      1.0  0.98112  0.71179  0.47243  1.0000
  H   H175      1.0  0.83671  0.51022  0.45543  1.0000
  H   H176      1.0  0.84320  0.47187  0.45133  1.0000
  C   C250      1.0  0.55220  0.26441  0.29741  1.0000
  C   C251      1.0  0.55214  0.28856  0.29676  1.0000
  C   C252      1.0  0.52642  0.28335  0.32279  1.0000
  N   N20       1.0  0.51155  0.25620  0.33537  1.0000
  C   C253      1.0  0.52642  0.24394  0.32277  1.0000
  C   C254      1.0  0.51884  0.21641  0.33652  1.0000
  C   C255      1.0  0.49174  0.19527  0.34765  1.0000
  N   N21       1.0  0.46904  0.19676  0.33556  1.0000
  C   C256      1.0  0.41920  0.16596  0.33498  1.0000
  C   C257      1.0  0.41135  0.18589  0.32390  1.0000
  N   N22       1.0  0.42627  0.21312  0.33543  1.0000
  C   C258      1.0  0.41136  0.22544  0.32426  1.0000
  C   C259      1.0  0.38535  0.20482  0.30202  1.0000
  C   C260      1.0  0.38538  0.18061  0.30130  1.0000
  C   C261      1.0  0.41923  0.25317  0.33567  1.0000
  C   C262      1.0  0.44641  0.27432  0.34670  1.0000
  N   N23       1.0  0.46914  0.27280  0.33583  1.0000
  C   C263      1.0  0.49169  0.29717  0.34757  1.0000
  C   C264      1.0  0.48290  0.31544  0.36737  1.0000
  C   C265      1.0  0.45495  0.30139  0.36604  1.0000
  C   C266      1.0  0.51893  0.30339  0.33710  1.0000
  C   C267      1.0  0.54001  0.33113  0.34010  1.0000
  C   C268      1.0  0.58522  0.38476  0.33678  1.0000
  C   C269      1.0  0.58272  0.36640  0.40457  1.0000
  C   C270      1.0  0.56021  0.34006  0.40692  1.0000
  C   C271      1.0  0.39883  0.26066  0.33402  1.0000
  C   C272      1.0  0.36292  0.28193  0.33653  1.0000
  C   C273      1.0  0.36710  0.27024  0.41401  1.0000
  C   C274      1.0  0.38474  0.25966  0.41283  1.0000
  C   C275      1.0  0.39891  0.13787  0.33142  1.0000
  C   C276      1.0  0.37890  0.12601  0.39869  1.0000
  C   C277      1.0  0.36062  0.09791  0.39954  1.0000
  C   C278      1.0  0.36236  0.08084  0.33460  1.0000
  C   C279      1.0  0.53976  0.20969  0.33776  1.0000
  C   C280      1.0  0.55571  0.21455  0.41507  1.0000
  C   C281      1.0  0.58524  0.20171  0.33528  1.0000
  C   C282      1.0  0.57805  0.21041  0.41397  1.0000
  H   H177      1.0  0.58980  0.21506  0.47009  1.0000
  H   H178      1.0  0.55162  0.22184  0.47194  1.0000
  H   H179      1.0  0.56869  0.26249  0.28294  1.0000
  H   H180      1.0  0.49368  0.24721  0.36162  1.0000
  H   H181      1.0  0.44441  0.22224  0.35936  1.0000
  H   H182      1.0  0.44378  0.13404  0.38170  1.0000
  H   H183      1.0  0.37800  0.13767  0.44911  1.0000
  H   H184      1.0  0.34666  0.08985  0.44996  1.0000
  H   H185      1.0  0.36876  0.20673  0.28952  1.0000
  H   H186      1.0  0.49459  0.33572  0.37952  1.0000
  H   H187      1.0  0.44306  0.30981  0.37750  1.0000
  H   H188      1.0  0.38801  0.25216  0.47072  1.0000
  H   H189      1.0  0.35762  0.26972  0.47269  1.0000
  H   H190      1.0  0.55925  0.32704  0.45581  1.0000
  H   H191      1.0  0.59757  0.37188  0.45170  1.0000
  C   C283      1.0  0.80526  0.28825  0.29457  1.0000
  C   C284      1.0  0.78628  0.24358  0.32066  1.0000
  C   C285      1.0  0.85313  0.30289  0.33545  1.0000
  C   C286      1.0  0.87425  0.29695  0.34723  1.0000
  C   C287      1.0  0.88368  0.22597  0.32374  1.0000
  C   C288      1.0  0.86476  0.18101  0.30217  1.0000
  C   C289      1.0  0.81637  0.16658  0.33537  1.0000
  C   C290      1.0  0.79523  0.17263  0.34613  1.0000
  N   N24       1.0  0.79677  0.19687  0.33492  1.0000
  C   C291      1.0  0.75413  0.16806  0.36703  1.0000
  C   C292      1.0  0.76817  0.15415  0.36588  1.0000
  C   C293      1.0  0.73850  0.20951  0.33924  1.0000
  C   C294      1.0  0.70336  0.21718  0.40371  1.0000
  C   C295      1.0  0.72968  0.22095  0.40589  1.0000
  C   C296      1.0  0.80886  0.13868  0.33381  1.0000
  C   C297      1.0  0.78759  0.08150  0.33648  1.0000
  C   C298      1.0  0.79933  0.09740  0.41386  1.0000
  C   C299      1.0  0.80989  0.12561  0.41260  1.0000
  C   C300      1.0  0.94353  0.25341  0.39850  1.0000
  C   C301      1.0  0.97163  0.26325  0.39941  1.0000
  C   C302      1.0  0.85500  0.34162  0.41418  1.0000
  C   C303      1.0  0.86780  0.38397  0.33447  1.0000
  C   C304      1.0  0.85914  0.36809  0.41317  1.0000
  H   H192      1.0  0.85454  0.37520  0.46943  1.0000
  H   H193      1.0  0.84776  0.33025  0.47109  1.0000
  H   H194      1.0  0.80714  0.30668  0.28104  1.0000
  H   H195      1.0  0.84730  0.22273  0.35850  1.0000
  H   H196      1.0  0.93184  0.24083  0.44885  1.0000
  H   H197      1.0  0.97968  0.25733  0.44978  1.0000
  H   H198      1.0  0.86285  0.16252  0.28966  1.0000
  H   H199      1.0  0.73388  0.15952  0.37956  1.0000
  H   H200      1.0  0.75976  0.13387  0.37784  1.0000
  H   H201      1.0  0.81745  0.13640  0.47041  1.0000
  H   H202      1.0  0.79987  0.08846  0.47253  1.0000
  H   H203      1.0  0.74278  0.23315  0.45432  1.0000
  H   H204      1.0  0.69795  0.22667  0.45066  1.0000
  C   C305      1.0  0.20824  0.61702  0.39703  1.0000
  C   C306      1.0  0.20726  0.59175  0.39761  1.0000
  C   C307      1.0  0.22178  0.58627  0.33086  1.0000
  H   H205      1.0  0.19799  0.62107  0.44531  1.0000
  C   C308      1.0  0.19072  0.57242  0.46958  1.0000
  H   H206      1.0  0.17015  0.56914  0.46786  1.0000
  H   H207      1.0  0.19963  0.58087  0.53455  1.0000
  H   H208      1.0  0.18910  0.55263  0.46365  1.0000
  C   C309      1.0  0.43276  0.58641  0.33173  1.0000
  C   C310      1.0  0.45246  0.59186  0.39775  1.0000
  C   C311      1.0  0.47772  0.61617  0.39829  1.0000
  C   C312      1.0  0.48324  0.63609  0.33124  1.0000
  H   H209      1.0  0.44839  0.57761  0.44623  1.0000
  C   C313      1.0  0.49699  0.61905  0.47052  1.0000
  H   H210      1.0  0.50031  0.60178  0.46914  1.0000
  H   H211      1.0  0.48847  0.61955  0.53533  1.0000
  H   H212      1.0  0.51677  0.63724  0.46458  1.0000
  C   C314      1.0  0.48314  0.84680  0.33153  1.0000
  C   C315      1.0  0.47770  0.86110  0.39747  1.0000
  C   C316      1.0  0.45340  0.86207  0.39797  1.0000
  C   C317      1.0  0.43348  0.84765  0.33100  1.0000
  H   H213      1.0  0.49194  0.87129  0.44589  1.0000
  C   C318      1.0  0.45054  0.87852  0.47007  1.0000
  H   H214      1.0  0.46783  0.89910  0.46858  1.0000
  H   H215      1.0  0.45001  0.86954  0.53495  1.0000
  H   H216      1.0  0.43237  0.88015  0.46408  1.0000
  C   C319      1.0  0.86966  0.40985  0.33170  1.0000
  C   C320      1.0  0.88402  0.42959  0.39753  1.0000
  C   C321      1.0  0.88500  0.45487  0.39811  1.0000
  C   C322      1.0  0.87050  0.46035  0.33136  1.0000
  H   H217      1.0  0.89425  0.42553  0.44579  1.0000
  C   C323      1.0  0.90152  0.47418  0.47005  1.0000
  H   H218      1.0  0.92209  0.47746  0.46830  1.0000
  H   H219      1.0  0.89259  0.46573  0.53503  1.0000
  H   H220      1.0  0.90314  0.49398  0.46410  1.0000
  C   C324      1.0  0.65957  0.46038  0.33221  1.0000
  C   C325      1.0  0.63980  0.45500  0.39799  1.0000
  C   C326      1.0  0.61453  0.43069  0.39857  1.0000
  C   C327      1.0  0.60907  0.41071  0.33184  1.0000
  H   H221      1.0  0.64383  0.46929  0.44625  1.0000
  C   C328      1.0  0.59518  0.42789  0.47051  1.0000
  H   H222      1.0  0.59189  0.44518  0.46875  1.0000
  H   H223      1.0  0.60362  0.42743  0.53549  1.0000
  H   H224      1.0  0.57540  0.40971  0.46456  1.0000
  C   C329      1.0  0.60926  0.19987  0.33237  1.0000
  C   C330      1.0  0.61472  0.18561  0.39839  1.0000
  C   C331      1.0  0.63903  0.18466  0.39885  1.0000
  C   C332      1.0  0.65894  0.19906  0.33173  1.0000
  H   H225      1.0  0.60049  0.17545  0.44692  1.0000
  C   C333      1.0  0.64192  0.16827  0.47108  1.0000
  H   H226      1.0  0.62465  0.14768  0.46978  1.0000
  H   H227      1.0  0.64244  0.17729  0.53589  1.0000
  H   H228      1.0  0.66011  0.16667  0.46509  1.0000
  C   C334      1.0  0.07548  0.32404  0.33911  1.0000
  C   C335      1.0  0.06062  0.32846  0.40576  1.0000
  C   C336      1.0  0.03197  0.31433  0.40678  1.0000
  C   C337      1.0  0.01752  0.29445  0.33963  1.0000
  H   H229      1.0  0.07097  0.34325  0.45239  1.0000
  C   C338      1.0  0.01802  0.32169  0.47643  1.0000
  H   H230      1.0  0.03208  0.33836  0.51908  1.0000
  H   H231      1.0  0.00600  0.30435  0.51967  1.0000
  H   H232      1.0  0.00471  0.32786  0.44483  1.0000
  C   C339      1.0  0.74549  0.75194  0.33950  1.0000
  C   C340      1.0  0.74102  0.73262  0.40604  1.0000
  C   C341      1.0  0.75516  0.71811  0.40703  1.0000
  C   C342      1.0  0.77510  0.72359  0.33997  1.0000
  H   H233      1.0  0.72619  0.72815  0.45260  1.0000
  C   C343      1.0  0.74774  0.69675  0.47653  1.0000
  H   H234      1.0  0.73103  0.69411  0.51908  1.0000
  H   H235      1.0  0.76504  0.70205  0.51987  1.0000
  H   H236      1.0  0.74161  0.67730  0.44479  1.0000
  C   C344      1.0  0.33683  0.00892  0.40578  1.0000
  C   C345      1.0  0.35135  0.03757  0.40686  1.0000
  C   C346      1.0  0.34595  0.05205  0.33971  1.0000
  H   H237      1.0  0.34125  0.99855  0.45242  1.0000
  C   C347      1.0  0.37261  0.05148  0.47658  1.0000
  H   H238      1.0  0.37520  0.03740  0.51921  1.0000
  H   H239      1.0  0.36726  0.06347  0.51982  1.0000
  H   H240      1.0  0.39211  0.06481  0.44503  1.0000
  C   C348      1.0  0.03178  0.71813  0.40554  1.0000
  C   C349      1.0  0.06043  0.73227  0.40643  1.0000
  H   H241      1.0  0.02143  0.70332  0.45213  1.0000
  C   C350      1.0  0.07438  0.72488  0.47592  1.0000
  H   H242      1.0  0.06031  0.70818  0.51851  1.0000
  H   H243      1.0  0.08638  0.74219  0.51922  1.0000
  H   H244      1.0  0.08770  0.71874  0.44415  1.0000
  C   C351      1.0  0.34686  0.29473  0.33941  1.0000
  C   C352      1.0  0.35127  0.31403  0.40597  1.0000
  C   C353      1.0  0.33713  0.32854  0.40688  1.0000
  C   C354      1.0  0.31725  0.32309  0.33973  1.0000
  H   H245      1.0  0.36606  0.31848  0.45260  1.0000
  C   C355      1.0  0.34449  0.34987  0.47643  1.0000
  H   H246      1.0  0.36116  0.35248  0.51908  1.0000
  H   H247      1.0  0.32715  0.34455  0.51967  1.0000
  H   H248      1.0  0.35066  0.36934  0.44473  1.0000
  C   C356      1.0  0.77479  0.05263  0.33945  1.0000
  C   C357      1.0  0.75552  0.03777  0.40615  1.0000
  C   C358      1.0  0.74100  0.00912  0.40716  1.0000
  C   C359      1.0  0.74642  0.99467  0.33996  1.0000
  H   H249      1.0  0.75108  0.04813  0.45281  1.0000
  C   C360      1.0  0.71970  0.99518  0.47685  1.0000
  H   H250      1.0  0.71710  0.00925  0.51953  1.0000
  H   H251      1.0  0.72502  0.98317  0.52005  1.0000
  H   H252      1.0  0.70021  0.98187  0.44527  1.0000
