data_image0
_chemical_formula_structural       C3NC2NH2CH2C3NC2NH2CH2C3NC2NH2CH2C3NC2NH2CH2C3NC2NH2CH2C3NC2NH2CH2C3H2CH2C3H2CH2C3H2CH2C3H2CH2C3H2CH2C3H2CH2C3NC2NH2CH2C3NC2NH2CH2C3NC2NH2CH2C3NC2NH2CH2C3NC2NH2CH2C3NC2NH2CH2C6H3NHNHNHC6H3NHNHNHC6H3NHNHNHC6H3NHNHNHC6H3NHNHNHC6H3NHNHNHC6H3NHNHNHC6H3NHNHNHC6H3NHNHNHC6H3NHNHNHC6H3NHNHNHC6H3NHNHNHC3H2CH2C3H2CH2C3H2CH2C3H2CH2C3H2CH2C3H2CH2C3NC2NH2CH2C3NC2NH2CH2C3NC2NH2CH2C3NC2NH2CH2C3NC2NH2CH2C3NC2NH2CH2C3H2CH2C3H2CH2C3H2CH2C3H2CH2C3H2CH2C3H2CH2
_chemical_formula_sum              "C252 N72 H216"
_cell_length_a       58.6437
_cell_length_b       58.6438
_cell_length_c       15.0184
_cell_angle_alpha    90
_cell_angle_beta     90
_cell_angle_gamma    120

_space_group_name_H-M_alt    "P 1"
_space_group_IT_number       1

loop_
  _space_group_symop_operation_xyz
  'x, y, z'

loop_
  _atom_site_type_symbol
  _atom_site_label
  _atom_site_symmetry_multiplicity
  _atom_site_fract_x
  _atom_site_fract_y
  _atom_site_fract_z
  _atom_site_occupancy
  C   C1        1.0  0.23781  0.42792  0.30555  1.0000
  C   C2        1.0  0.23134  0.43931  0.23367  1.0000
  C   C3        1.0  0.20805  0.44121  0.23612  1.0000
  N   N1        1.0  0.20331  0.45255  0.16473  1.0000
  C   C4        1.0  0.21918  0.46199  0.09243  1.0000
  C   C5        1.0  0.24212  0.46018  0.09055  1.0000
  N   N2        1.0  0.24727  0.44904  0.16098  1.0000
  H   H1        1.0  0.21447  0.47026  0.04094  1.0000
  H   H2        1.0  0.25473  0.46709  0.03764  1.0000
  C   C6        1.0  0.26269  0.42701  0.30898  1.0000
  H   H3        1.0  0.27138  0.43008  0.24252  1.0000
  H   H4        1.0  0.25852  0.40744  0.33035  1.0000
  C   C7        1.0  0.58909  0.82811  0.30549  1.0000
  C   C8        1.0  0.57769  0.81024  0.23363  1.0000
  C   C9        1.0  0.57579  0.78505  0.23612  1.0000
  N   N3        1.0  0.56444  0.76896  0.16475  1.0000
  C   C10       1.0  0.55499  0.77538  0.09245  1.0000
  C   C11       1.0  0.55680  0.80012  0.09054  1.0000
  N   N4        1.0  0.56796  0.81644  0.16095  1.0000
  H   H5        1.0  0.54671  0.76239  0.04100  1.0000
  H   H6        1.0  0.54988  0.80582  0.03763  1.0000
  C   C12       1.0  0.58999  0.85390  0.30890  1.0000
  H   H7        1.0  0.58691  0.85950  0.24243  1.0000
  H   H8        1.0  0.60956  0.86930  0.33026  1.0000
  C   C13       1.0  0.18889  0.77919  0.30553  1.0000
  C   C14       1.0  0.20675  0.78567  0.23364  1.0000
  C   C15       1.0  0.23195  0.80896  0.23611  1.0000
  N   N5        1.0  0.24802  0.81371  0.16471  1.0000
  C   C16       1.0  0.24160  0.79786  0.09238  1.0000
  C   C17       1.0  0.21685  0.77491  0.09048  1.0000
  N   N6        1.0  0.20055  0.76975  0.16092  1.0000
  H   H9        1.0  0.25457  0.80257  0.04088  1.0000
  H   H10       1.0  0.21115  0.76231  0.03754  1.0000
  C   C18       1.0  0.16310  0.75430  0.30892  1.0000
  H   H11       1.0  0.15749  0.74562  0.24245  1.0000
  H   H12       1.0  0.14771  0.75848  0.33028  1.0000
  C   C19       1.0  0.77271  0.59556  0.30550  1.0000
  C   C20       1.0  0.77919  0.58417  0.23364  1.0000
  C   C21       1.0  0.80248  0.58226  0.23615  1.0000
  N   N7        1.0  0.80722  0.57092  0.16478  1.0000
  C   C22       1.0  0.79137  0.56148  0.09245  1.0000
  C   C23       1.0  0.76843  0.56329  0.09052  1.0000
  N   N8        1.0  0.76327  0.57444  0.16093  1.0000
  H   H13       1.0  0.79608  0.55321  0.04099  1.0000
  H   H14       1.0  0.75582  0.55638  0.03759  1.0000
  C   C24       1.0  0.74783  0.59647  0.30888  1.0000
  H   H15       1.0  0.73915  0.59340  0.24240  1.0000
  H   H16       1.0  0.75200  0.61603  0.33026  1.0000
  C   C25       1.0  0.42145  0.19537  0.30553  1.0000
  C   C26       1.0  0.43283  0.21324  0.23367  1.0000
  C   C27       1.0  0.43473  0.23843  0.23619  1.0000
  N   N9        1.0  0.44606  0.25451  0.16481  1.0000
  C   C28       1.0  0.45549  0.24810  0.09246  1.0000
  C   C29       1.0  0.45368  0.22335  0.09051  1.0000
  N   N10       1.0  0.44255  0.20704  0.16093  1.0000
  H   H17       1.0  0.46375  0.26108  0.04098  1.0000
  H   H18       1.0  0.46059  0.21766  0.03756  1.0000
  C   C30       1.0  0.42054  0.16958  0.30888  1.0000
  H   H19       1.0  0.42360  0.16397  0.24238  1.0000
  H   H20       1.0  0.40098  0.15418  0.33028  1.0000
  C   C31       1.0  0.82164  0.24428  0.30555  1.0000
  C   C32       1.0  0.80376  0.23780  0.23372  1.0000
  C   C33       1.0  0.77857  0.21452  0.23623  1.0000
  N   N11       1.0  0.76248  0.20978  0.16488  1.0000
  C   C34       1.0  0.76889  0.22564  0.09258  1.0000
  C   C35       1.0  0.79364  0.24858  0.09064  1.0000
  N   N12       1.0  0.80995  0.25374  0.16103  1.0000
  H   H21       1.0  0.75590  0.22094  0.04113  1.0000
  H   H22       1.0  0.79932  0.26119  0.03773  1.0000
  C   C36       1.0  0.84743  0.26917  0.30894  1.0000
  H   H23       1.0  0.85303  0.27785  0.24247  1.0000
  H   H24       1.0  0.86283  0.26500  0.33030  1.0000
  C   C37       1.0  0.15087  0.56121  0.33431  1.0000
  C   C38       1.0  0.15269  0.57722  0.26108  1.0000
  C   C39       1.0  0.15241  0.60084  0.27240  1.0000
  H   H25       1.0  0.15315  0.61116  0.21660  1.0000
  H   H26       1.0  0.15352  0.57137  0.19745  1.0000
  C   C40       1.0  0.14962  0.53570  0.31259  1.0000
  H   H27       1.0  0.16802  0.54010  0.27948  1.0000
  H   H28       1.0  0.13367  0.52574  0.26400  1.0000
  C   C41       1.0  0.45577  0.60789  0.33438  1.0000
  C   C42       1.0  0.43976  0.59370  0.26115  1.0000
  C   C43       1.0  0.41613  0.56979  0.27246  1.0000
  H   H29       1.0  0.40582  0.56022  0.21666  1.0000
  H   H30       1.0  0.44561  0.60037  0.19752  1.0000
  C   C44       1.0  0.48130  0.63214  0.31266  1.0000
  H   H31       1.0  0.47690  0.64613  0.27952  1.0000
  H   H32       1.0  0.49124  0.62613  0.26410  1.0000
  C   C45       1.0  0.40911  0.86611  0.33433  1.0000
  C   C46       1.0  0.42331  0.86429  0.26111  1.0000
  C   C47       1.0  0.44721  0.86457  0.27242  1.0000
  H   H33       1.0  0.45678  0.86383  0.21662  1.0000
  H   H34       1.0  0.41663  0.86345  0.19748  1.0000
  C   C48       1.0  0.38485  0.86736  0.31262  1.0000
  H   H35       1.0  0.37087  0.84897  0.27951  1.0000
  H   H36       1.0  0.39085  0.88331  0.26404  1.0000
  C   C49       1.0  0.85963  0.46225  0.33437  1.0000
  C   C50       1.0  0.85782  0.44624  0.26113  1.0000
  C   C51       1.0  0.85810  0.42262  0.27243  1.0000
  H   H37       1.0  0.85737  0.41231  0.21663  1.0000
  H   H38       1.0  0.85700  0.45210  0.19750  1.0000
  C   C52       1.0  0.86091  0.48778  0.31266  1.0000
  H   H39       1.0  0.84252  0.48338  0.27952  1.0000
  H   H40       1.0  0.87687  0.49773  0.26410  1.0000
  C   C53       1.0  0.55472  0.41561  0.33437  1.0000
  C   C54       1.0  0.57072  0.42980  0.26111  1.0000
  C   C55       1.0  0.59435  0.45370  0.27239  1.0000
  H   H41       1.0  0.60466  0.46326  0.21657  1.0000
  H   H42       1.0  0.56487  0.42311  0.19750  1.0000
  C   C56       1.0  0.52920  0.39135  0.31270  1.0000
  H   H43       1.0  0.53360  0.37736  0.27959  1.0000
  H   H44       1.0  0.51924  0.39735  0.26414  1.0000
  C   C57       1.0  0.60140  0.15733  0.33436  1.0000
  C   C58       1.0  0.58721  0.15914  0.26108  1.0000
  C   C59       1.0  0.56330  0.15886  0.27232  1.0000
  H   H45       1.0  0.55374  0.15959  0.21649  1.0000
  H   H46       1.0  0.59390  0.15996  0.19747  1.0000
  C   C60       1.0  0.62565  0.15605  0.31272  1.0000
  H   H47       1.0  0.63964  0.17444  0.27956  1.0000
  H   H48       1.0  0.61965  0.14008  0.26420  1.0000
  C   C61       1.0  0.97728  0.35791  0.31259  1.0000
  C   C62       1.0  0.99602  0.36702  0.24264  1.0000
  C   C63       1.0  0.02343  0.38026  0.26215  1.0000
  N   N13       1.0  0.04063  0.38883  0.19249  1.0000
  C   C64       1.0  0.03301  0.38529  0.10599  1.0000
  C   C65       1.0  0.00599  0.37230  0.08669  1.0000
  N   N14       1.0  0.98867  0.36377  0.15540  1.0000
  H   H49       1.0  0.04674  0.39212  0.05627  1.0000
  H   H50       1.0  0.99939  0.36933  0.02245  1.0000
  C   C66       1.0  0.94844  0.34606  0.29698  1.0000
  H   H51       1.0  0.93916  0.32542  0.31694  1.0000
  H   H52       1.0  0.94390  0.34654  0.22662  1.0000
  C   C67       1.0  0.65910  0.63760  0.31255  1.0000
  C   C68       1.0  0.64998  0.64723  0.24262  1.0000
  C   C69       1.0  0.63673  0.66139  0.26217  1.0000
  N   N15       1.0  0.62816  0.67003  0.19255  1.0000
  C   C70       1.0  0.63171  0.66597  0.10603  1.0000
  C   C71       1.0  0.64470  0.65194  0.08670  1.0000
  N   N16       1.0  0.65324  0.64314  0.15538  1.0000
  H   H53       1.0  0.62488  0.67287  0.05633  1.0000
  H   H54       1.0  0.64767  0.64833  0.02244  1.0000
  C   C72       1.0  0.67094  0.62060  0.29690  1.0000
  H   H55       1.0  0.69158  0.63196  0.31689  1.0000
  H   H56       1.0  0.67046  0.61560  0.22654  1.0000
  C   C73       1.0  0.37940  0.03970  0.31257  1.0000
  C   C74       1.0  0.36977  0.02095  0.24266  1.0000
  C   C75       1.0  0.35560  0.99354  0.26223  1.0000
  N   N17       1.0  0.34695  0.97633  0.19261  1.0000
  C   C76       1.0  0.35100  0.98393  0.10609  1.0000
  C   C77       1.0  0.36503  0.01095  0.08673  1.0000
  N   N18       1.0  0.37384  0.02829  0.15540  1.0000
  H   H57       1.0  0.34410  0.97020  0.05640  1.0000
  H   H58       1.0  0.36864  0.01754  0.02247  1.0000
  C   C78       1.0  0.39640  0.06854  0.29688  1.0000
  H   H59       1.0  0.38504  0.07782  0.31691  1.0000
  H   H60       1.0  0.40139  0.07307  0.22651  1.0000
  C   C79       1.0  0.03323  0.66558  0.31258  1.0000
  C   C80       1.0  0.01449  0.65646  0.24266  1.0000
  C   C81       1.0  0.98708  0.64321  0.26220  1.0000
  N   N19       1.0  0.96987  0.63464  0.19257  1.0000
  C   C82       1.0  0.97748  0.63819  0.10606  1.0000
  C   C83       1.0  0.00450  0.65117  0.08672  1.0000
  N   N20       1.0  0.02183  0.65971  0.15541  1.0000
  H   H61       1.0  0.96375  0.63135  0.05635  1.0000
  H   H62       1.0  0.01109  0.65414  0.02247  1.0000
  C   C84       1.0  0.06208  0.67742  0.29694  1.0000
  H   H63       1.0  0.07136  0.69806  0.31690  1.0000
  H   H64       1.0  0.06661  0.67694  0.22658  1.0000
  C   C85       1.0  0.35142  0.38589  0.31258  1.0000
  C   C86       1.0  0.36055  0.37627  0.24265  1.0000
  C   C87       1.0  0.37378  0.36210  0.26219  1.0000
  N   N21       1.0  0.38236  0.35347  0.19256  1.0000
  C   C88       1.0  0.37883  0.35754  0.10605  1.0000
  C   C89       1.0  0.36585  0.37159  0.08672  1.0000
  N   N22       1.0  0.35731  0.38038  0.15540  1.0000
  H   H65       1.0  0.38567  0.35065  0.05635  1.0000
  H   H66       1.0  0.36289  0.37522  0.02247  1.0000
  C   C90       1.0  0.33959  0.40290  0.29694  1.0000
  H   H67       1.0  0.31894  0.39154  0.31688  1.0000
  H   H68       1.0  0.34007  0.40792  0.22658  1.0000
  C   C91       1.0  0.63112  0.98375  0.31254  1.0000
  C   C92       1.0  0.64073  0.00249  0.24262  1.0000
  C   C93       1.0  0.65490  0.02990  0.26217  1.0000
  N   N23       1.0  0.66352  0.04712  0.19255  1.0000
  C   C94       1.0  0.65945  0.03951  0.10603  1.0000
  C   C95       1.0  0.64540  0.01249  0.08669  1.0000
  N   N24       1.0  0.63662  0.99515  0.15537  1.0000
  H   H69       1.0  0.66633  0.05324  0.05634  1.0000
  H   H70       1.0  0.64177  0.00590  0.02243  1.0000
  C   C96       1.0  0.61411  0.95491  0.29690  1.0000
  H   H71       1.0  0.62547  0.94562  0.31681  1.0000
  H   H72       1.0  0.60908  0.95037  0.22654  1.0000
  C   C97       1.0  0.14354  0.45738  0.29050  1.0000
  C   C98       1.0  0.11627  0.43926  0.29468  1.0000
  C   C99       1.0  0.09867  0.44620  0.33369  1.0000
  C   C100      1.0  0.10894  0.47212  0.36676  1.0000
  C   C101      1.0  0.13596  0.49082  0.35961  1.0000
  C   C102      1.0  0.15318  0.48328  0.32136  1.0000
  H   H73       1.0  0.09645  0.47789  0.39236  1.0000
  H   H74       1.0  0.17288  0.49662  0.31729  1.0000
  H   H75       1.0  0.10931  0.42087  0.26850  1.0000
  N   N25       1.0  0.16174  0.45007  0.25949  1.0000
  H   H76       1.0  0.15526  0.44054  0.19952  1.0000
  N   N26       1.0  0.14460  0.51698  0.38693  1.0000
  H   H77       1.0  0.16110  0.52350  0.42594  1.0000
  N   N27       1.0  0.07110  0.42831  0.32980  1.0000
  H   H78       1.0  0.06062  0.43683  0.35330  1.0000
  C   C103      1.0  0.55961  0.70437  0.29060  1.0000
  C   C104      1.0  0.57773  0.69521  0.29477  1.0000
  C   C105      1.0  0.57078  0.67067  0.33377  1.0000
  C   C106      1.0  0.54487  0.65503  0.36684  1.0000
  C   C107      1.0  0.52617  0.66335  0.35969  1.0000
  C   C108      1.0  0.53372  0.68812  0.32148  1.0000
  H   H79       1.0  0.53910  0.63677  0.39243  1.0000
  H   H80       1.0  0.52037  0.69446  0.31735  1.0000
  H   H81       1.0  0.59612  0.70664  0.26858  1.0000
  N   N28       1.0  0.56692  0.72987  0.25956  1.0000
  H   H82       1.0  0.57646  0.73293  0.19960  1.0000
  N   N29       1.0  0.50001  0.64583  0.38700  1.0000
  H   H83       1.0  0.49349  0.65580  0.42602  1.0000
  N   N30       1.0  0.58867  0.66099  0.32988  1.0000
  H   H84       1.0  0.58015  0.64199  0.35336  1.0000
  C   C109      1.0  0.31263  0.87346  0.29057  1.0000
  C   C110      1.0  0.32178  0.90073  0.29479  1.0000
  C   C111      1.0  0.34633  0.91832  0.33379  1.0000
  C   C112      1.0  0.36196  0.90804  0.36685  1.0000
  C   C113      1.0  0.35365  0.88103  0.35966  1.0000
  C   C114      1.0  0.32888  0.86381  0.32143  1.0000
  H   H85       1.0  0.38023  0.92054  0.39244  1.0000
  H   H86       1.0  0.32253  0.84411  0.31731  1.0000
  H   H87       1.0  0.31035  0.90769  0.26861  1.0000
  N   N31       1.0  0.28712  0.85526  0.25954  1.0000
  H   H88       1.0  0.28406  0.86174  0.19959  1.0000
  N   N32       1.0  0.37116  0.87238  0.38696  1.0000
  H   H89       1.0  0.36119  0.85588  0.42597  1.0000
  N   N33       1.0  0.35601  0.94589  0.32992  1.0000
  H   H90       1.0  0.37501  0.95637  0.35340  1.0000
  C   C115      1.0  0.86698  0.56609  0.29067  1.0000
  C   C116      1.0  0.89425  0.58421  0.29485  1.0000
  C   C117      1.0  0.91186  0.57727  0.33388  1.0000
  C   C118      1.0  0.90158  0.55135  0.36689  1.0000
  C   C119      1.0  0.87456  0.53265  0.35971  1.0000
  C   C120      1.0  0.85734  0.54019  0.32151  1.0000
  H   H91       1.0  0.91408  0.54558  0.39247  1.0000
  H   H92       1.0  0.83765  0.52684  0.31738  1.0000
  H   H93       1.0  0.90121  0.60260  0.26867  1.0000
  N   N34       1.0  0.84878  0.57340  0.25962  1.0000
  H   H94       1.0  0.85527  0.58294  0.19968  1.0000
  N   N35       1.0  0.86593  0.50649  0.38701  1.0000
  H   H95       1.0  0.84943  0.49996  0.42602  1.0000
  N   N36       1.0  0.93942  0.59517  0.32992  1.0000
  H   H96       1.0  0.94990  0.58665  0.35339  1.0000
  C   C121      1.0  0.45090  0.31910  0.29079  1.0000
  C   C122      1.0  0.43278  0.32825  0.29495  1.0000
  C   C123      1.0  0.43971  0.35279  0.33396  1.0000
  C   C124      1.0  0.46563  0.36844  0.36703  1.0000
  C   C125      1.0  0.48434  0.36013  0.35981  1.0000
  C   C126      1.0  0.47680  0.33537  0.32163  1.0000
  H   H97       1.0  0.47140  0.38671  0.39251  1.0000
  H   H98       1.0  0.49015  0.32903  0.31749  1.0000
  H   H99       1.0  0.41439  0.31682  0.26874  1.0000
  N   N37       1.0  0.44360  0.29360  0.25972  1.0000
  H   H100      1.0  0.43407  0.29055  0.19976  1.0000
  N   N38       1.0  0.51050  0.37767  0.38709  1.0000
  H   H101      1.0  0.51703  0.36770  0.42610  1.0000
  N   N39       1.0  0.42182  0.36247  0.32994  1.0000
  H   H102      1.0  0.43033  0.38146  0.35342  1.0000
  C   C127      1.0  0.69790  0.15001  0.29081  1.0000
  C   C128      1.0  0.68875  0.12275  0.29497  1.0000
  C   C129      1.0  0.66421  0.10513  0.33397  1.0000
  C   C130      1.0  0.64857  0.11541  0.36705  1.0000
  C   C131      1.0  0.65687  0.14242  0.35989  1.0000
  C   C132      1.0  0.68163  0.15965  0.32166  1.0000
  H   H103      1.0  0.63029  0.10290  0.39254  1.0000
  H   H104      1.0  0.68798  0.17934  0.31753  1.0000
  H   H105      1.0  0.70018  0.11579  0.26874  1.0000
  N   N40       1.0  0.72340  0.16822  0.25974  1.0000
  H   H106      1.0  0.72645  0.16173  0.19976  1.0000
  N   N41       1.0  0.63933  0.15105  0.38712  1.0000
  H   H107      1.0  0.64930  0.16755  0.42612  1.0000
  N   N42       1.0  0.65453  0.07757  0.32998  1.0000
  H   H108      1.0  0.63553  0.06709  0.35348  1.0000
  C   C133      1.0  0.44918  0.15270  0.35605  1.0000
  C   C134      1.0  0.43160  0.12539  0.36408  1.0000
  C   C135      1.0  0.43921  0.10691  0.33958  1.0000
  C   C136      1.0  0.46550  0.11643  0.31158  1.0000
  C   C137      1.0  0.48382  0.14364  0.30866  1.0000
  C   C138      1.0  0.47540  0.16170  0.33015  1.0000
  H   H109      1.0  0.47177  0.10340  0.29722  1.0000
  H   H110      1.0  0.48847  0.18149  0.32705  1.0000
  H   H111      1.0  0.41289  0.11903  0.38623  1.0000
  N   N43       1.0  0.44115  0.17141  0.37115  1.0000
  H   H112      1.0  0.43497  0.16995  0.43599  1.0000
  N   N44       1.0  0.51048  0.15172  0.29019  1.0000
  H   H113      1.0  0.51861  0.16826  0.25081  1.0000
  N   N45       1.0  0.42116  0.07951  0.34991  1.0000
  H   H114      1.0  0.43016  0.06868  0.33645  1.0000
  C   C139      1.0  0.70232  0.56783  0.35613  1.0000
  C   C140      1.0  0.69259  0.58542  0.36412  1.0000
  C   C141      1.0  0.66649  0.57779  0.33970  1.0000
  C   C142      1.0  0.64973  0.55151  0.31172  1.0000
  C   C143      1.0  0.65861  0.53318  0.30883  1.0000
  C   C144      1.0  0.68510  0.54161  0.33027  1.0000
  H   H115      1.0  0.63042  0.54523  0.29738  1.0000
  H   H116      1.0  0.69182  0.52854  0.32716  1.0000
  H   H117      1.0  0.70493  0.60412  0.38630  1.0000
  N   N46       1.0  0.72906  0.57587  0.37119  1.0000
  H   H118      1.0  0.73379  0.58205  0.43601  1.0000
  N   N47       1.0  0.64004  0.50652  0.29032  1.0000
  H   H119      1.0  0.64846  0.49841  0.25093  1.0000
  N   N48       1.0  0.65715  0.59585  0.34999  1.0000
  H   H120      1.0  0.63731  0.58685  0.33656  1.0000
  C   C145      1.0  0.86429  0.31467  0.35626  1.0000
  C   C146      1.0  0.89160  0.32440  0.36426  1.0000
  C   C147      1.0  0.91008  0.35051  0.33987  1.0000
  C   C148      1.0  0.90056  0.36727  0.31199  1.0000
  C   C149      1.0  0.87335  0.35838  0.30898  1.0000
  C   C150      1.0  0.85529  0.33189  0.33039  1.0000
  H   H121      1.0  0.91359  0.38657  0.29750  1.0000
  H   H122      1.0  0.83550  0.32516  0.32724  1.0000
  H   H123      1.0  0.89797  0.31206  0.38640  1.0000
  N   N49       1.0  0.84559  0.28792  0.37128  1.0000
  H   H124      1.0  0.84704  0.28318  0.43609  1.0000
  N   N50       1.0  0.86525  0.37695  0.29043  1.0000
  H   H125      1.0  0.84871  0.36852  0.25105  1.0000
  N   N51       1.0  0.93748  0.35984  0.35011  1.0000
  H   H126      1.0  0.94831  0.37968  0.33672  1.0000
  C   C151      1.0  0.56136  0.87076  0.35624  1.0000
  C   C152      1.0  0.57894  0.89807  0.36425  1.0000
  C   C153      1.0  0.57131  0.91655  0.33985  1.0000
  C   C154      1.0  0.54502  0.90703  0.31199  1.0000
  C   C155      1.0  0.52670  0.87981  0.30902  1.0000
  C   C156      1.0  0.53513  0.86176  0.33041  1.0000
  H   H127      1.0  0.53875  0.92006  0.29750  1.0000
  H   H128      1.0  0.52207  0.84197  0.32725  1.0000
  H   H129      1.0  0.59765  0.90444  0.38634  1.0000
  N   N52       1.0  0.56940  0.85206  0.37125  1.0000
  H   H130      1.0  0.57559  0.85351  0.43607  1.0000
  N   N53       1.0  0.50004  0.87172  0.29045  1.0000
  H   H131      1.0  0.49193  0.85518  0.25106  1.0000
  N   N54       1.0  0.58937  0.94395  0.35007  1.0000
  H   H132      1.0  0.58037  0.95478  0.33668  1.0000
  C   C157      1.0  0.30819  0.45564  0.35631  1.0000
  C   C158      1.0  0.31792  0.43807  0.36431  1.0000
  C   C159      1.0  0.34403  0.44570  0.33988  1.0000
  C   C160      1.0  0.36080  0.47199  0.31201  1.0000
  C   C161      1.0  0.35190  0.49030  0.30904  1.0000
  C   C162      1.0  0.32541  0.48187  0.33046  1.0000
  H   H133      1.0  0.38009  0.47826  0.29750  1.0000
  H   H134      1.0  0.31868  0.49493  0.32731  1.0000
  H   H135      1.0  0.30558  0.41935  0.38640  1.0000
  N   N55       1.0  0.28145  0.44760  0.37133  1.0000
  H   H136      1.0  0.27670  0.44141  0.43615  1.0000
  N   N56       1.0  0.37046  0.51696  0.29049  1.0000
  H   H137      1.0  0.36203  0.52507  0.25109  1.0000
  N   N57       1.0  0.35337  0.42764  0.35009  1.0000
  H   H138      1.0  0.37321  0.43664  0.33669  1.0000
  C   C163      1.0  0.14622  0.70880  0.35623  1.0000
  C   C164      1.0  0.11891  0.69907  0.36424  1.0000
  C   C165      1.0  0.10043  0.67297  0.33979  1.0000
  C   C166      1.0  0.10996  0.65620  0.31197  1.0000
  C   C167      1.0  0.13717  0.66509  0.30899  1.0000
  C   C168      1.0  0.15522  0.69157  0.33039  1.0000
  H   H139      1.0  0.09692  0.63690  0.29747  1.0000
  H   H140      1.0  0.17501  0.69830  0.32725  1.0000
  H   H141      1.0  0.11255  0.71142  0.38633  1.0000
  N   N58       1.0  0.16493  0.73554  0.37127  1.0000
  H   H142      1.0  0.16348  0.74028  0.43608  1.0000
  N   N59       1.0  0.14525  0.64652  0.29043  1.0000
  H   H143      1.0  0.16179  0.65494  0.25104  1.0000
  N   N60       1.0  0.07304  0.66364  0.35007  1.0000
  H   H144      1.0  0.06220  0.64380  0.33667  1.0000
  C   C169      1.0  0.19079  0.43154  0.31052  1.0000
  C   C170      1.0  0.19720  0.41948  0.38021  1.0000
  C   C171      1.0  0.22033  0.41796  0.37840  1.0000
  H   H145      1.0  0.22443  0.40964  0.43147  1.0000
  H   H146      1.0  0.18530  0.41224  0.43506  1.0000
  C   C172      1.0  0.16656  0.43354  0.32344  1.0000
  H   H147      1.0  0.16815  0.44182  0.39014  1.0000
  H   H148      1.0  0.14952  0.41358  0.32367  1.0000
  C   C173      1.0  0.58547  0.77746  0.31051  1.0000
  C   C174      1.0  0.59754  0.79595  0.38018  1.0000
  C   C175      1.0  0.59904  0.82059  0.37835  1.0000
  H   H149      1.0  0.60736  0.83301  0.43141  1.0000
  H   H150      1.0  0.60476  0.79128  0.43506  1.0000
  C   C176      1.0  0.58345  0.75123  0.32350  1.0000
  H   H151      1.0  0.57515  0.74454  0.39019  1.0000
  H   H152      1.0  0.60340  0.75414  0.32380  1.0000
  C   C177      1.0  0.23954  0.82621  0.31055  1.0000
  C   C178      1.0  0.22106  0.81978  0.38024  1.0000
  C   C179      1.0  0.19642  0.79665  0.37840  1.0000
  H   H153      1.0  0.18399  0.79255  0.43147  1.0000
  H   H154      1.0  0.22572  0.83168  0.43510  1.0000
  C   C180      1.0  0.26576  0.85043  0.32349  1.0000
  H   H155      1.0  0.27246  0.84884  0.39019  1.0000
  H   H156      1.0  0.26284  0.86747  0.32375  1.0000
  C   C181      1.0  0.81973  0.59193  0.31057  1.0000
  C   C182      1.0  0.81330  0.60399  0.38024  1.0000
  C   C183      1.0  0.79017  0.60550  0.37839  1.0000
  H   H157      1.0  0.78607  0.61382  0.43146  1.0000
  H   H158      1.0  0.82519  0.61121  0.43514  1.0000
  C   C184      1.0  0.84394  0.58991  0.32357  1.0000
  H   H159      1.0  0.84232  0.58160  0.39026  1.0000
  H   H160      1.0  0.86099  0.60987  0.32392  1.0000
  C   C185      1.0  0.42507  0.24602  0.31064  1.0000
  C   C186      1.0  0.41302  0.22752  0.38032  1.0000
  C   C187      1.0  0.41151  0.20288  0.37844  1.0000
  H   H161      1.0  0.40319  0.19045  0.43149  1.0000
  H   H162      1.0  0.40579  0.23218  0.43519  1.0000
  C   C188      1.0  0.42707  0.27223  0.32362  1.0000
  H   H163      1.0  0.43535  0.27892  0.39034  1.0000
  H   H164      1.0  0.40711  0.26931  0.32388  1.0000
  C   C189      1.0  0.77099  0.19726  0.31062  1.0000
  C   C190      1.0  0.78949  0.20368  0.38027  1.0000
  C   C191      1.0  0.81413  0.22681  0.37842  1.0000
  H   H165      1.0  0.82656  0.23092  0.43147  1.0000
  H   H166      1.0  0.78483  0.19179  0.43515  1.0000
  C   C192      1.0  0.74477  0.17305  0.32364  1.0000
  H   H167      1.0  0.73809  0.17466  0.39034  1.0000
  H   H168      1.0  0.74767  0.15600  0.32392  1.0000
  C   C193      1.0  0.15095  0.61000  0.35806  1.0000
  C   C194      1.0  0.15005  0.59463  0.43242  1.0000
  C   C195      1.0  0.14968  0.57032  0.42092  1.0000
  N   N61       1.0  0.14804  0.55650  0.49584  1.0000
  C   C196      1.0  0.14688  0.56443  0.57964  1.0000
  C   C197      1.0  0.14739  0.58842  0.59066  1.0000
  N   N62       1.0  0.14886  0.60243  0.51701  1.0000
  H   H169      1.0  0.14569  0.55314  0.63317  1.0000
  H   H170      1.0  0.14652  0.59518  0.65252  1.0000
  C   C198      1.0  0.14959  0.63455  0.37161  1.0000
  H   H171      1.0  0.16766  0.64911  0.40495  1.0000
  H   H172      1.0  0.13312  0.62943  0.41710  1.0000
  C   C199      1.0  0.40698  0.55917  0.35812  1.0000
  C   C200      1.0  0.42235  0.57364  0.43248  1.0000
  C   C201      1.0  0.44667  0.59758  0.42099  1.0000
  N   N63       1.0  0.46049  0.60976  0.49591  1.0000
  C   C202      1.0  0.45255  0.60067  0.57970  1.0000
  C   C203      1.0  0.42857  0.57718  0.59072  1.0000
  N   N64       1.0  0.41455  0.56465  0.51706  1.0000
  H   H173      1.0  0.46385  0.61076  0.63323  1.0000
  H   H174      1.0  0.42180  0.56954  0.65258  1.0000
  C   C204      1.0  0.38243  0.53327  0.37166  1.0000
  H   H175      1.0  0.36787  0.53678  0.40500  1.0000
  H   H176      1.0  0.38755  0.52191  0.41715  1.0000
  C   C205      1.0  0.45783  0.86603  0.35809  1.0000
  C   C206      1.0  0.44336  0.86693  0.43245  1.0000
  C   C207      1.0  0.41942  0.86730  0.42095  1.0000
  N   N65       1.0  0.40724  0.86894  0.49587  1.0000
  C   C208      1.0  0.41633  0.87009  0.57966  1.0000
  C   C209      1.0  0.43980  0.86958  0.59068  1.0000
  N   N66       1.0  0.45235  0.86811  0.51703  1.0000
  H   H177      1.0  0.40623  0.87129  0.63319  1.0000
  H   H178      1.0  0.44745  0.87046  0.65254  1.0000
  C   C210      1.0  0.48374  0.86738  0.37163  1.0000
  H   H179      1.0  0.48022  0.84931  0.40497  1.0000
  H   H180      1.0  0.49509  0.88386  0.41712  1.0000
  C   C211      1.0  0.85957  0.41346  0.35809  1.0000
  C   C212      1.0  0.86047  0.42882  0.43246  1.0000
  C   C213      1.0  0.86083  0.45315  0.42097  1.0000
  N   N67       1.0  0.86247  0.46696  0.49590  1.0000
  C   C214      1.0  0.86364  0.45903  0.57969  1.0000
  C   C215      1.0  0.86313  0.43504  0.59070  1.0000
  N   N68       1.0  0.86166  0.42103  0.51703  1.0000
  H   H181      1.0  0.86483  0.47031  0.63323  1.0000
  H   H182      1.0  0.86400  0.42827  0.65255  1.0000
  C   C216      1.0  0.86092  0.38891  0.37161  1.0000
  H   H183      1.0  0.84285  0.37435  0.40496  1.0000
  H   H184      1.0  0.87739  0.39403  0.41710  1.0000
  C   C217      1.0  0.60352  0.46433  0.35804  1.0000
  C   C218      1.0  0.58817  0.44987  0.43242  1.0000
  C   C219      1.0  0.56384  0.42593  0.42097  1.0000
  N   N69       1.0  0.55003  0.41376  0.49591  1.0000
  C   C220      1.0  0.55798  0.42286  0.57970  1.0000
  C   C221      1.0  0.58197  0.44633  0.59067  1.0000
  N   N70       1.0  0.59598  0.45887  0.51699  1.0000
  H   H185      1.0  0.54670  0.41277  0.63325  1.0000
  H   H186      1.0  0.58875  0.45398  0.65251  1.0000
  C   C222      1.0  0.62808  0.49023  0.37152  1.0000
  H   H187      1.0  0.64264  0.48672  0.40485  1.0000
  H   H188      1.0  0.62297  0.50160  0.41701  1.0000
  C   C223      1.0  0.55267  0.15740  0.35796  1.0000
  C   C224      1.0  0.56712  0.15650  0.43237  1.0000
  C   C225      1.0  0.59107  0.15612  0.42095  1.0000
  N   N71       1.0  0.60323  0.15448  0.49590  1.0000
  C   C226      1.0  0.59412  0.15332  0.57967  1.0000
  C   C227      1.0  0.57064  0.15383  0.59062  1.0000
  N   N72       1.0  0.55811  0.15530  0.51691  1.0000
  H   H189      1.0  0.60421  0.15213  0.63324  1.0000
  H   H190      1.0  0.56298  0.15296  0.65245  1.0000
  C   C228      1.0  0.52677  0.15605  0.37141  1.0000
  H   H191      1.0  0.53028  0.17412  0.40475  1.0000
  H   H192      1.0  0.51539  0.13957  0.41688  1.0000
  C   C229      1.0  0.03239  0.38514  0.35159  1.0000
  C   C230      1.0  0.01354  0.37484  0.42059  1.0000
  C   C231      1.0  0.98649  0.36109  0.40130  1.0000
  H   H193      1.0  0.97345  0.35457  0.45329  1.0000
  H   H194      1.0  0.01932  0.37790  0.48587  1.0000
  C   C232      1.0  0.06085  0.40214  0.37306  1.0000
  H   H195      1.0  0.07104  0.39212  0.34839  1.0000
  H   H196      1.0  0.06432  0.40487  0.44490  1.0000
  C   C233      1.0  0.63185  0.66546  0.35163  1.0000
  C   C234      1.0  0.64216  0.65691  0.42060  1.0000
  C   C235      1.0  0.65591  0.64361  0.40128  1.0000
  H   H197      1.0  0.66241  0.63707  0.45326  1.0000
  H   H198      1.0  0.63908  0.65960  0.48589  1.0000
  C   C236      1.0  0.61484  0.67691  0.37314  1.0000
  H   H199      1.0  0.62487  0.69713  0.34851  1.0000
  H   H200      1.0  0.61211  0.67764  0.44500  1.0000
  C   C237      1.0  0.35155  0.98460  0.35169  1.0000
  C   C238      1.0  0.36012  0.00347  0.42065  1.0000
  C   C239      1.0  0.37341  0.03051  0.40130  1.0000
  H   H201      1.0  0.37995  0.04356  0.45327  1.0000
  H   H202      1.0  0.35742  0.99770  0.48594  1.0000
  C   C240      1.0  0.34009  0.95614  0.37321  1.0000
  H   H203      1.0  0.31987  0.94594  0.34859  1.0000
  H   H204      1.0  0.33937  0.95269  0.44506  1.0000
  C   C241      1.0  0.97813  0.63834  0.35166  1.0000
  C   C242      1.0  0.99699  0.64865  0.42063  1.0000
  C   C243      1.0  0.02404  0.66240  0.40131  1.0000
  H   H205      1.0  0.03708  0.66891  0.45329  1.0000
  H   H206      1.0  0.99122  0.64558  0.48591  1.0000
  C   C244      1.0  0.94967  0.62134  0.37317  1.0000
  H   H207      1.0  0.93947  0.63136  0.34853  1.0000
  H   H208      1.0  0.94621  0.61861  0.44502  1.0000
  C   C245      1.0  0.37865  0.35802  0.35165  1.0000
  C   C246      1.0  0.36834  0.36656  0.42062  1.0000
  C   C247      1.0  0.35459  0.37987  0.40130  1.0000
  H   H209      1.0  0.34807  0.38639  0.45328  1.0000
  H   H210      1.0  0.37139  0.36384  0.48591  1.0000
  C   C248      1.0  0.39564  0.34655  0.37316  1.0000
  H   H211      1.0  0.38562  0.32633  0.34849  1.0000
  H   H212      1.0  0.39836  0.34580  0.44501  1.0000
  C   C249      1.0  0.65899  0.03885  0.35163  1.0000
  C   C250      1.0  0.65045  0.01999  0.42059  1.0000
  C   C251      1.0  0.63714  0.99294  0.40126  1.0000
  H   H213      1.0  0.63062  0.97990  0.45325  1.0000
  H   H214      1.0  0.65316  0.02576  0.48589  1.0000
  C   C252      1.0  0.67045  0.06731  0.37316  1.0000
  H   H215      1.0  0.69067  0.07751  0.34848  1.0000
  H   H216      1.0  0.67120  0.07077  0.44502  1.0000
