data_image0
_chemical_formula_structural       C3OHNCHC3H2C2NHCNC3OHNCHC3H2C2NHCNC2OHOCHNCHC3H2CNHC2NH2C2OHOCHNCHC3H2CNHC2NH4C9OHNCHNCHC3HC2HC4NCNH2C2NCNH2C9OHNCHNCHC3HC2HC4NCNH2C2NCNH2C3OHCOHNCHNCHC3H3CH2C2NCNH2C2NCNH2C3OHCOHNCHNCHC3H3CH2C2NCNH2C2NCNH2C6O2H2C6O2H2C6O2H2NCHNCHNCHNCHNCHNCHC3H2C3H2C3H2C3H2C3H2C3H2C2NCNH2C2NCNH2C2NCNH2C2NCNH2C2NCNH2C2NCNH2C6O2H2C6O2H2C6O2H2NCHNCHNCHNCHNCHNCHC3H2C3H2C3H2C3H2C3H2C3H2C2NCNH2C2NCNH2C2NCNH2C2NCNH2C2NCNH2C2NCNH2
_chemical_formula_sum              "C240 O24 H144 N72"
_cell_length_a       46.2087
_cell_length_b       46.2087
_cell_length_c       14.8104
_cell_angle_alpha    90
_cell_angle_beta     90
_cell_angle_gamma    120

_space_group_name_H-M_alt    "P 1"
_space_group_IT_number       1

loop_
  _space_group_symop_operation_xyz
  'x, y, z'

loop_
  _atom_site_type_symbol
  _atom_site_label
  _atom_site_symmetry_multiplicity
  _atom_site_fract_x
  _atom_site_fract_y
  _atom_site_fract_z
  _atom_site_occupancy
  C   C1        1.0  0.02781  0.26544  0.31348  1.0000
  C   C2        1.0  0.04832  0.30147  0.30940  1.0000
  C   C3        1.0  0.08137  0.31887  0.34516  1.0000
  O   O1        1.0  0.03727  0.32149  0.27484  1.0000
  H   H1        1.0  0.03338  0.31625  0.21008  1.0000
  N   N1        1.0  0.10983  0.24033  0.29258  1.0000
  C   C4        1.0  0.11301  0.37763  0.28461  1.0000
  H   H2        1.0  0.10226  0.37090  0.22220  1.0000
  C   C5        1.0  0.09609  0.29961  0.36934  1.0000
  C   C6        1.0  0.08019  0.26485  0.35623  1.0000
  C   C7        1.0  0.04627  0.24850  0.32966  1.0000
  H   H3        1.0  0.12091  0.31183  0.38691  1.0000
  H   H4        1.0  0.03465  0.22323  0.33396  1.0000
  C   C8        1.0  0.09952  0.24901  0.36940  1.0000
  C   C9        1.0  0.12116  0.25730  0.44507  1.0000
  N   N2        1.0  0.11494  0.26639  0.52655  1.0000
  H   H5        1.0  0.09365  0.26498  0.53952  1.0000
  C   C10       1.0  0.10227  0.35406  0.35564  1.0000
  N   N3        1.0  0.12102  0.36466  0.43224  1.0000
  C   C11       1.0  0.02781  0.76544  0.31348  1.0000
  C   C12       1.0  0.04832  0.80147  0.30940  1.0000
  C   C13       1.0  0.08137  0.81886  0.34516  1.0000
  O   O2        1.0  0.03727  0.82149  0.27484  1.0000
  H   H6        1.0  0.03338  0.81625  0.21008  1.0000
  N   N4        1.0  0.10983  0.74033  0.29258  1.0000
  C   C14       1.0  0.11301  0.87764  0.28461  1.0000
  H   H7        1.0  0.10226  0.87091  0.22220  1.0000
  C   C15       1.0  0.09609  0.79961  0.36934  1.0000
  C   C16       1.0  0.08020  0.76485  0.35623  1.0000
  C   C17       1.0  0.04627  0.74850  0.32966  1.0000
  H   H8        1.0  0.12091  0.81183  0.38691  1.0000
  H   H9        1.0  0.03465  0.72323  0.33396  1.0000
  C   C18       1.0  0.09952  0.74901  0.36940  1.0000
  C   C19       1.0  0.12116  0.75730  0.44507  1.0000
  N   N5        1.0  0.11494  0.76639  0.52655  1.0000
  H   H10       1.0  0.09365  0.76498  0.53952  1.0000
  C   C20       1.0  0.10227  0.85406  0.35564  1.0000
  N   N6        1.0  0.12102  0.86466  0.43224  1.0000
  C   C21       1.0  0.21450  0.25004  0.30966  1.0000
  C   C22       1.0  0.19711  0.26565  0.34566  1.0000
  O   O3        1.0  0.19450  0.21901  0.27477  1.0000
  H   H11       1.0  0.19977  0.22045  0.21004  1.0000
  O   O4        1.0  0.22225  0.03414  0.27497  1.0000
  C   C23       1.0  0.13846  0.23864  0.28467  1.0000
  H   H12       1.0  0.14530  0.23502  0.22197  1.0000
  N   N7        1.0  0.14330  0.40630  0.29260  1.0000
  C   C24       1.0  0.21637  0.29957  0.37044  1.0000
  H   H13       1.0  0.20411  0.31213  0.38800  1.0000
  C   C25       1.0  0.21651  0.42003  0.37032  1.0000
  C   C26       1.0  0.19759  0.43586  0.35705  1.0000
  C   C27       1.0  0.21508  0.46970  0.32972  1.0000
  H   H14       1.0  0.20394  0.39521  0.38791  1.0000
  H   H15       1.0  0.20138  0.48127  0.33342  1.0000
  C   C28       1.0  0.16191  0.25143  0.35600  1.0000
  N   N8        1.0  0.15118  0.25934  0.43275  1.0000
  H   H16       1.0  0.13086  0.27241  0.57586  1.0000
  C   C29       1.0  0.16238  0.41637  0.36921  1.0000
  C   C30       1.0  0.14904  0.39464  0.44481  1.0000
  N   N9        1.0  0.16432  0.40066  0.52630  1.0000
  H   H17       1.0  0.18397  0.42207  0.53978  1.0000
  H   H18       1.0  0.15415  0.38480  0.57564  1.0000
  C   C31       1.0  0.21450  0.75004  0.30966  1.0000
  C   C32       1.0  0.19711  0.76565  0.34566  1.0000
  O   O5        1.0  0.19450  0.71901  0.27477  1.0000
  H   H19       1.0  0.19977  0.72045  0.21004  1.0000
  O   O6        1.0  0.22226  0.53414  0.27497  1.0000
  C   C33       1.0  0.13846  0.73864  0.28467  1.0000
  H   H20       1.0  0.14530  0.73502  0.22197  1.0000
  N   N10       1.0  0.14330  0.90630  0.29260  1.0000
  C   C34       1.0  0.21637  0.79957  0.37044  1.0000
  H   H21       1.0  0.20411  0.81213  0.38800  1.0000
  C   C35       1.0  0.21651  0.92004  0.37032  1.0000
  C   C36       1.0  0.19759  0.93586  0.35705  1.0000
  C   C37       1.0  0.21508  0.96970  0.32972  1.0000
  H   H22       1.0  0.20394  0.89521  0.38791  1.0000
  H   H23       1.0  0.20138  0.98127  0.33342  1.0000
  C   C38       1.0  0.16191  0.75143  0.35600  1.0000
  N   N11       1.0  0.15118  0.75934  0.43275  1.0000
  H   H24       1.0  0.13086  0.77241  0.57586  1.0000
  C   C39       1.0  0.16238  0.91637  0.36921  1.0000
  C   C40       1.0  0.14904  0.89464  0.44481  1.0000
  N   N12       1.0  0.16432  0.90066  0.52630  1.0000
  H   H25       1.0  0.18397  0.92207  0.53978  1.0000
  H   H26       1.0  0.15416  0.88480  0.57564  1.0000
  H   H27       1.0  0.22371  0.03031  0.21023  1.0000
  H   H28       1.0  0.22371  0.53031  0.21023  1.0000
  C   C41       1.0  0.26866  0.24723  0.31331  1.0000
  C   C42       1.0  0.30469  0.26276  0.30910  1.0000
  C   C43       1.0  0.25053  0.26556  0.31367  1.0000
  C   C44       1.0  0.26880  0.02465  0.31384  1.0000
  C   C45       1.0  0.26886  0.07813  0.34612  1.0000
  C   C46       1.0  0.25327  0.04515  0.30991  1.0000
  C   C47       1.0  0.25049  0.48820  0.31368  1.0000
  C   C48       1.0  0.26605  0.46772  0.30981  1.0000
  C   C49       1.0  0.25046  0.43473  0.34588  1.0000
  O   O7        1.0  0.29710  0.47877  0.27507  1.0000
  H   H29       1.0  0.29570  0.48263  0.21033  1.0000
  N   N13       1.0  0.27588  0.37279  0.29287  1.0000
  C   C50       1.0  0.27753  0.40309  0.28504  1.0000
  H   H30       1.0  0.28152  0.41387  0.22266  1.0000
  N   N14       1.0  0.24351  0.14006  0.29240  1.0000
  C   C51       1.0  0.24183  0.10972  0.28485  1.0000
  H   H31       1.0  0.23816  0.09917  0.22225  1.0000
  C   C52       1.0  0.25172  0.21182  0.32945  1.0000
  C   C53       1.0  0.26810  0.19426  0.35589  1.0000
  C   C54       1.0  0.30287  0.21312  0.36886  1.0000
  H   H32       1.0  0.22646  0.19819  0.33387  1.0000
  C   C55       1.0  0.25112  0.31847  0.35713  1.0000
  C   C56       1.0  0.26745  0.30095  0.33002  1.0000
  H   H33       1.0  0.29273  0.31465  0.33336  1.0000
  C   C57       1.0  0.30419  0.04314  0.33016  1.0000
  C   C58       1.0  0.30274  0.09276  0.37115  1.0000
  C   C59       1.0  0.26689  0.35368  0.36943  1.0000
  C   C60       1.0  0.26470  0.41378  0.35622  1.0000
  N   N15       1.0  0.25662  0.39504  0.43283  1.0000
  C   C61       1.0  0.25854  0.36699  0.44516  1.0000
  N   N16       1.0  0.24939  0.35171  0.52667  1.0000
  H   H34       1.0  0.25095  0.33192  0.53985  1.0000
  H   H35       1.0  0.24353  0.36173  0.57602  1.0000
  C   C62       1.0  0.25225  0.15909  0.36909  1.0000
  C   C63       1.0  0.25466  0.09913  0.35629  1.0000
  N   N17       1.0  0.26258  0.11787  0.43287  1.0000
  C   C64       1.0  0.26056  0.14588  0.44499  1.0000
  N   N18       1.0  0.26966  0.16126  0.52636  1.0000
  H   H36       1.0  0.26825  0.18116  0.53915  1.0000
  H   H37       1.0  0.27570  0.15141  0.57577  1.0000
  C   C65       1.0  0.26866  0.74723  0.31331  1.0000
  C   C66       1.0  0.30469  0.76276  0.30910  1.0000
  C   C67       1.0  0.25053  0.76556  0.31367  1.0000
  C   C68       1.0  0.26880  0.52465  0.31384  1.0000
  C   C69       1.0  0.26886  0.57813  0.34612  1.0000
  C   C70       1.0  0.25327  0.54515  0.30991  1.0000
  C   C71       1.0  0.25049  0.98820  0.31368  1.0000
  C   C72       1.0  0.26605  0.96773  0.30981  1.0000
  C   C73       1.0  0.25046  0.93473  0.34588  1.0000
  O   O8        1.0  0.29710  0.97876  0.27507  1.0000
  H   H38       1.0  0.29570  0.98263  0.21033  1.0000
  N   N19       1.0  0.27588  0.87279  0.29287  1.0000
  C   C74       1.0  0.27753  0.90309  0.28504  1.0000
  H   H39       1.0  0.28152  0.91387  0.22266  1.0000
  N   N20       1.0  0.24351  0.64006  0.29240  1.0000
  C   C75       1.0  0.24183  0.60972  0.28485  1.0000
  H   H40       1.0  0.23816  0.59918  0.22225  1.0000
  C   C76       1.0  0.25172  0.71182  0.32945  1.0000
  C   C77       1.0  0.26810  0.69426  0.35589  1.0000
  C   C78       1.0  0.30287  0.71312  0.36886  1.0000
  H   H41       1.0  0.22646  0.69819  0.33387  1.0000
  C   C79       1.0  0.25112  0.81847  0.35713  1.0000
  C   C80       1.0  0.26746  0.80095  0.33002  1.0000
  H   H42       1.0  0.29273  0.81465  0.33336  1.0000
  C   C81       1.0  0.30419  0.54314  0.33016  1.0000
  C   C82       1.0  0.30274  0.59276  0.37115  1.0000
  C   C83       1.0  0.26689  0.85368  0.36943  1.0000
  C   C84       1.0  0.26470  0.91378  0.35622  1.0000
  N   N21       1.0  0.25662  0.89504  0.43283  1.0000
  C   C85       1.0  0.25854  0.86699  0.44516  1.0000
  N   N22       1.0  0.24939  0.85171  0.52667  1.0000
  H   H43       1.0  0.25095  0.83192  0.53985  1.0000
  H   H44       1.0  0.24353  0.86173  0.57602  1.0000
  C   C86       1.0  0.25225  0.65909  0.36909  1.0000
  C   C87       1.0  0.25466  0.59913  0.35629  1.0000
  N   N23       1.0  0.26258  0.61787  0.43287  1.0000
  C   C88       1.0  0.26056  0.64588  0.44499  1.0000
  N   N24       1.0  0.26966  0.66126  0.52636  1.0000
  H   H45       1.0  0.26825  0.68116  0.53915  1.0000
  H   H46       1.0  0.27570  0.65142  0.57577  1.0000
  C   C89       1.0  0.49136  0.24733  0.31369  1.0000
  C   C90       1.0  0.43787  0.19393  0.34601  1.0000
  C   C91       1.0  0.47085  0.21130  0.30982  1.0000
  O   O9        1.0  0.48186  0.19129  0.27495  1.0000
  H   H47       1.0  0.48570  0.19655  0.21021  1.0000
  C   C92       1.0  0.32209  0.24708  0.34454  1.0000
  O   O10       1.0  0.32468  0.29383  0.27449  1.0000
  H   H48       1.0  0.31942  0.29247  0.20975  1.0000
  N   N25       1.0  0.40943  0.27236  0.29256  1.0000
  C   C93       1.0  0.38086  0.27414  0.28417  1.0000
  H   H49       1.0  0.37396  0.27760  0.22137  1.0000
  N   N26       1.0  0.37597  0.10652  0.29326  1.0000
  C   C94       1.0  0.40626  0.13519  0.28533  1.0000
  H   H50       1.0  0.41702  0.14194  0.22293  1.0000
  C   C95       1.0  0.47288  0.26425  0.32990  1.0000
  C   C96       1.0  0.43902  0.24791  0.35697  1.0000
  C   C97       1.0  0.42321  0.21320  0.37070  1.0000
  H   H51       1.0  0.48445  0.28953  0.33336  1.0000
  H   H52       1.0  0.39839  0.20095  0.38828  1.0000
  H   H53       1.0  0.31511  0.20052  0.38626  1.0000
  C   C98       1.0  0.32167  0.07695  0.35763  1.0000
  H   H54       1.0  0.31792  0.03159  0.33350  1.0000
  H   H55       1.0  0.31531  0.11759  0.38870  1.0000
  C   C99       1.0  0.41961  0.26370  0.36963  1.0000
  C   C100      1.0  0.35728  0.26145  0.35526  1.0000
  N   N27       1.0  0.36788  0.25347  0.43214  1.0000
  C   C101      1.0  0.39787  0.25547  0.44503  1.0000
  N   N28       1.0  0.40389  0.24634  0.52669  1.0000
  H   H56       1.0  0.42514  0.24772  0.54006  1.0000
  H   H57       1.0  0.38788  0.24035  0.57576  1.0000
  C   C102      1.0  0.35688  0.09642  0.36985  1.0000
  C   C103      1.0  0.41693  0.15873  0.35642  1.0000
  N   N29       1.0  0.39823  0.14809  0.43309  1.0000
  C   C104      1.0  0.37021  0.11811  0.44553  1.0000
  N   N30       1.0  0.35496  0.11198  0.52709  1.0000
  H   H58       1.0  0.33520  0.09062  0.54035  1.0000
  H   H59       1.0  0.36499  0.12788  0.57639  1.0000
  C   C105      1.0  0.49136  0.74733  0.31369  1.0000
  C   C106      1.0  0.43787  0.69393  0.34601  1.0000
  C   C107      1.0  0.47085  0.71130  0.30982  1.0000
  O   O11       1.0  0.48186  0.69129  0.27495  1.0000
  H   H60       1.0  0.48570  0.69655  0.21021  1.0000
  C   C108      1.0  0.32209  0.74708  0.34454  1.0000
  O   O12       1.0  0.32468  0.79383  0.27449  1.0000
  H   H61       1.0  0.31942  0.79247  0.20975  1.0000
  N   N31       1.0  0.40943  0.77236  0.29256  1.0000
  C   C109      1.0  0.38086  0.77414  0.28417  1.0000
  H   H62       1.0  0.37396  0.77760  0.22137  1.0000
  N   N32       1.0  0.37597  0.60652  0.29326  1.0000
  C   C110      1.0  0.40626  0.63519  0.28533  1.0000
  H   H63       1.0  0.41702  0.64194  0.22293  1.0000
  C   C111      1.0  0.47288  0.76425  0.32990  1.0000
  C   C112      1.0  0.43902  0.74791  0.35697  1.0000
  C   C113      1.0  0.42321  0.71320  0.37070  1.0000
  H   H64       1.0  0.48445  0.78953  0.33336  1.0000
  H   H65       1.0  0.39839  0.70095  0.38828  1.0000
  H   H66       1.0  0.31511  0.70052  0.38626  1.0000
  C   C114      1.0  0.32167  0.57695  0.35763  1.0000
  H   H67       1.0  0.31792  0.53160  0.33350  1.0000
  H   H68       1.0  0.31531  0.61759  0.38870  1.0000
  C   C115      1.0  0.41961  0.76370  0.36963  1.0000
  C   C116      1.0  0.35728  0.76145  0.35526  1.0000
  N   N33       1.0  0.36789  0.75347  0.43214  1.0000
  C   C117      1.0  0.39787  0.75547  0.44503  1.0000
  N   N34       1.0  0.40389  0.74634  0.52669  1.0000
  H   H69       1.0  0.42514  0.74772  0.54006  1.0000
  H   H70       1.0  0.38788  0.74035  0.57576  1.0000
  C   C118      1.0  0.35688  0.59642  0.36985  1.0000
  C   C119      1.0  0.41693  0.65873  0.35642  1.0000
  N   N35       1.0  0.39823  0.64809  0.43309  1.0000
  C   C120      1.0  0.37021  0.61811  0.44553  1.0000
  N   N36       1.0  0.35496  0.61198  0.52709  1.0000
  H   H71       1.0  0.33520  0.59062  0.54035  1.0000
  H   H72       1.0  0.36499  0.62788  0.57639  1.0000
  C   C121      1.0  0.99136  0.24733  0.31369  1.0000
  C   C122      1.0  0.93787  0.19393  0.34601  1.0000
  C   C123      1.0  0.97085  0.21130  0.30982  1.0000
  C   C124      1.0  0.52781  0.26544  0.31348  1.0000
  C   C125      1.0  0.54832  0.30147  0.30940  1.0000
  C   C126      1.0  0.58137  0.31887  0.34516  1.0000
  O   O13       1.0  0.98186  0.19129  0.27495  1.0000
  O   O14       1.0  0.53727  0.32149  0.27484  1.0000
  H   H73       1.0  0.98570  0.19655  0.21021  1.0000
  H   H74       1.0  0.53338  0.31625  0.21008  1.0000
  C   C127      1.0  0.76866  0.24723  0.31331  1.0000
  C   C128      1.0  0.82209  0.24708  0.34454  1.0000
  C   C129      1.0  0.80468  0.26276  0.30910  1.0000
  C   C130      1.0  0.75054  0.26556  0.31367  1.0000
  C   C131      1.0  0.71450  0.25004  0.30966  1.0000
  C   C132      1.0  0.69711  0.26565  0.34566  1.0000
  O   O15       1.0  0.82468  0.29383  0.27449  1.0000
  O   O16       1.0  0.69450  0.21901  0.27477  1.0000
  H   H75       1.0  0.81942  0.29247  0.20975  1.0000
  H   H76       1.0  0.69977  0.22045  0.21004  1.0000
  C   C133      1.0  0.76880  0.02465  0.31384  1.0000
  C   C134      1.0  0.76885  0.07813  0.34612  1.0000
  C   C135      1.0  0.75327  0.04515  0.30991  1.0000
  C   C136      1.0  0.75049  0.48820  0.31368  1.0000
  C   C137      1.0  0.76605  0.46772  0.30981  1.0000
  C   C138      1.0  0.75046  0.43473  0.34588  1.0000
  O   O17       1.0  0.72225  0.03414  0.27497  1.0000
  O   O18       1.0  0.79710  0.47877  0.27507  1.0000
  H   H77       1.0  0.72371  0.03031  0.21023  1.0000
  H   H78       1.0  0.79570  0.48263  0.21033  1.0000
  N   N37       1.0  0.60982  0.24033  0.29258  1.0000
  C   C139      1.0  0.63846  0.23864  0.28467  1.0000
  H   H79       1.0  0.64530  0.23502  0.22197  1.0000
  N   N38       1.0  0.77587  0.37279  0.29287  1.0000
  C   C140      1.0  0.77753  0.40309  0.28504  1.0000
  H   H80       1.0  0.78152  0.41387  0.22266  1.0000
  N   N39       1.0  0.64330  0.40630  0.29260  1.0000
  C   C141      1.0  0.61301  0.37763  0.28461  1.0000
  H   H81       1.0  0.60226  0.37090  0.22220  1.0000
  N   N40       1.0  0.90943  0.27236  0.29256  1.0000
  C   C142      1.0  0.88086  0.27414  0.28417  1.0000
  H   H82       1.0  0.87396  0.27760  0.22137  1.0000
  N   N41       1.0  0.74351  0.14006  0.29240  1.0000
  C   C143      1.0  0.74183  0.10972  0.28485  1.0000
  H   H83       1.0  0.73816  0.09917  0.22225  1.0000
  N   N42       1.0  0.87597  0.10652  0.29326  1.0000
  C   C144      1.0  0.90626  0.13519  0.28533  1.0000
  H   H84       1.0  0.91702  0.14194  0.22293  1.0000
  C   C145      1.0  0.97288  0.26425  0.32990  1.0000
  C   C146      1.0  0.93901  0.24791  0.35697  1.0000
  C   C147      1.0  0.92321  0.21320  0.37070  1.0000
  H   H85       1.0  0.98445  0.28953  0.33336  1.0000
  H   H86       1.0  0.89839  0.20095  0.38828  1.0000
  C   C148      1.0  0.59608  0.29961  0.36934  1.0000
  C   C149      1.0  0.58020  0.26485  0.35623  1.0000
  C   C150      1.0  0.54627  0.24850  0.32966  1.0000
  H   H87       1.0  0.62091  0.31183  0.38691  1.0000
  H   H88       1.0  0.53465  0.22323  0.33396  1.0000
  C   C151      1.0  0.75172  0.21182  0.32945  1.0000
  C   C152      1.0  0.76810  0.19426  0.35589  1.0000
  C   C153      1.0  0.80287  0.21312  0.36886  1.0000
  H   H89       1.0  0.72646  0.19819  0.33387  1.0000
  H   H90       1.0  0.81511  0.20052  0.38626  1.0000
  C   C154      1.0  0.71637  0.29957  0.37044  1.0000
  C   C155      1.0  0.75112  0.31847  0.35713  1.0000
  C   C156      1.0  0.76746  0.30095  0.33002  1.0000
  H   H91       1.0  0.70411  0.31213  0.38800  1.0000
  H   H92       1.0  0.79273  0.31465  0.33336  1.0000
  C   C157      1.0  0.80419  0.04314  0.33016  1.0000
  C   C158      1.0  0.82167  0.07695  0.35763  1.0000
  C   C159      1.0  0.80274  0.09276  0.37115  1.0000
  H   H93       1.0  0.81792  0.03159  0.33350  1.0000
  H   H94       1.0  0.81531  0.11759  0.38870  1.0000
  C   C160      1.0  0.71651  0.42003  0.37032  1.0000
  C   C161      1.0  0.69759  0.43586  0.35705  1.0000
  C   C162      1.0  0.71508  0.46970  0.32972  1.0000
  H   H95       1.0  0.70393  0.39521  0.38791  1.0000
  H   H96       1.0  0.70137  0.48127  0.33342  1.0000
  C   C163      1.0  0.59952  0.24901  0.36940  1.0000
  C   C164      1.0  0.66191  0.25143  0.35600  1.0000
  N   N43       1.0  0.65118  0.25934  0.43275  1.0000
  C   C165      1.0  0.62116  0.25730  0.44507  1.0000
  N   N44       1.0  0.61494  0.26639  0.52655  1.0000
  H   H97       1.0  0.59364  0.26498  0.53952  1.0000
  H   H98       1.0  0.63086  0.27241  0.57586  1.0000
  C   C166      1.0  0.76689  0.35368  0.36943  1.0000
  C   C167      1.0  0.76470  0.41378  0.35622  1.0000
  N   N45       1.0  0.75662  0.39504  0.43283  1.0000
  C   C168      1.0  0.75854  0.36699  0.44516  1.0000
  N   N46       1.0  0.74939  0.35171  0.52667  1.0000
  H   H99       1.0  0.75095  0.33192  0.53985  1.0000
  H   H100      1.0  0.74353  0.36173  0.57602  1.0000
  C   C169      1.0  0.66238  0.41637  0.36921  1.0000
  C   C170      1.0  0.60227  0.35406  0.35564  1.0000
  N   N47       1.0  0.62102  0.36466  0.43224  1.0000
  C   C171      1.0  0.64904  0.39464  0.44481  1.0000
  N   N48       1.0  0.66432  0.40066  0.52630  1.0000
  H   H101      1.0  0.68397  0.42207  0.53978  1.0000
  H   H102      1.0  0.65416  0.38480  0.57564  1.0000
  C   C172      1.0  0.91961  0.26370  0.36963  1.0000
  C   C173      1.0  0.85728  0.26145  0.35526  1.0000
  N   N49       1.0  0.86789  0.25347  0.43214  1.0000
  C   C174      1.0  0.89787  0.25547  0.44503  1.0000
  N   N50       1.0  0.90389  0.24634  0.52669  1.0000
  H   H103      1.0  0.92514  0.24772  0.54006  1.0000
  H   H104      1.0  0.88788  0.24035  0.57576  1.0000
  C   C175      1.0  0.75225  0.15909  0.36909  1.0000
  C   C176      1.0  0.75466  0.09913  0.35629  1.0000
  N   N51       1.0  0.76258  0.11787  0.43287  1.0000
  C   C177      1.0  0.76056  0.14588  0.44499  1.0000
  N   N52       1.0  0.76966  0.16126  0.52636  1.0000
  H   H105      1.0  0.76825  0.18116  0.53915  1.0000
  H   H106      1.0  0.77570  0.15141  0.57577  1.0000
  C   C178      1.0  0.85688  0.09642  0.36985  1.0000
  C   C179      1.0  0.91693  0.15873  0.35642  1.0000
  N   N53       1.0  0.89823  0.14809  0.43309  1.0000
  C   C180      1.0  0.87021  0.11811  0.44553  1.0000
  N   N54       1.0  0.85496  0.11198  0.52709  1.0000
  H   H107      1.0  0.83520  0.09062  0.54035  1.0000
  H   H108      1.0  0.86499  0.12788  0.57639  1.0000
  C   C181      1.0  0.99136  0.74733  0.31369  1.0000
  C   C182      1.0  0.93787  0.69393  0.34601  1.0000
  C   C183      1.0  0.97085  0.71130  0.30982  1.0000
  C   C184      1.0  0.52781  0.76544  0.31348  1.0000
  C   C185      1.0  0.54832  0.80147  0.30940  1.0000
  C   C186      1.0  0.58137  0.81886  0.34516  1.0000
  O   O19       1.0  0.98186  0.69129  0.27495  1.0000
  O   O20       1.0  0.53727  0.82149  0.27484  1.0000
  H   H109      1.0  0.98570  0.69655  0.21021  1.0000
  H   H110      1.0  0.53338  0.81625  0.21008  1.0000
  C   C187      1.0  0.76866  0.74723  0.31331  1.0000
  C   C188      1.0  0.82209  0.74708  0.34454  1.0000
  C   C189      1.0  0.80468  0.76276  0.30910  1.0000
  C   C190      1.0  0.75053  0.76556  0.31367  1.0000
  C   C191      1.0  0.71450  0.75004  0.30966  1.0000
  C   C192      1.0  0.69711  0.76565  0.34566  1.0000
  O   O21       1.0  0.82469  0.79383  0.27449  1.0000
  O   O22       1.0  0.69450  0.71901  0.27477  1.0000
  H   H111      1.0  0.81942  0.79247  0.20975  1.0000
  H   H112      1.0  0.69977  0.72045  0.21004  1.0000
  C   C193      1.0  0.76880  0.52465  0.31384  1.0000
  C   C194      1.0  0.76885  0.57813  0.34612  1.0000
  C   C195      1.0  0.75327  0.54515  0.30991  1.0000
  C   C196      1.0  0.75049  0.98820  0.31368  1.0000
  C   C197      1.0  0.76605  0.96773  0.30981  1.0000
  C   C198      1.0  0.75046  0.93473  0.34588  1.0000
  O   O23       1.0  0.72225  0.53414  0.27497  1.0000
  O   O24       1.0  0.79710  0.97876  0.27507  1.0000
  H   H113      1.0  0.72371  0.53031  0.21023  1.0000
  H   H114      1.0  0.79570  0.98263  0.21033  1.0000
  N   N55       1.0  0.60983  0.74033  0.29258  1.0000
  C   C199      1.0  0.63846  0.73864  0.28467  1.0000
  H   H115      1.0  0.64530  0.73502  0.22197  1.0000
  N   N56       1.0  0.77588  0.87279  0.29287  1.0000
  C   C200      1.0  0.77753  0.90309  0.28504  1.0000
  H   H116      1.0  0.78153  0.91387  0.22266  1.0000
  N   N57       1.0  0.64330  0.90630  0.29260  1.0000
  C   C201      1.0  0.61301  0.87764  0.28461  1.0000
  H   H117      1.0  0.60226  0.87091  0.22220  1.0000
  N   N58       1.0  0.90943  0.77236  0.29256  1.0000
  C   C202      1.0  0.88086  0.77414  0.28417  1.0000
  H   H118      1.0  0.87397  0.77760  0.22137  1.0000
  N   N59       1.0  0.74351  0.64006  0.29240  1.0000
  C   C203      1.0  0.74183  0.60972  0.28485  1.0000
  H   H119      1.0  0.73816  0.59918  0.22225  1.0000
  N   N60       1.0  0.87597  0.60652  0.29326  1.0000
  C   C204      1.0  0.90626  0.63519  0.28533  1.0000
  H   H120      1.0  0.91702  0.64194  0.22293  1.0000
  C   C205      1.0  0.97288  0.76425  0.32990  1.0000
  C   C206      1.0  0.93902  0.74791  0.35697  1.0000
  C   C207      1.0  0.92321  0.71320  0.37070  1.0000
  H   H121      1.0  0.98445  0.78953  0.33336  1.0000
  H   H122      1.0  0.89839  0.70095  0.38828  1.0000
  C   C208      1.0  0.59609  0.79961  0.36934  1.0000
  C   C209      1.0  0.58020  0.76485  0.35623  1.0000
  C   C210      1.0  0.54627  0.74850  0.32966  1.0000
  H   H123      1.0  0.62091  0.81183  0.38691  1.0000
  H   H124      1.0  0.53465  0.72323  0.33396  1.0000
  C   C211      1.0  0.75172  0.71182  0.32945  1.0000
  C   C212      1.0  0.76810  0.69426  0.35589  1.0000
  C   C213      1.0  0.80287  0.71312  0.36886  1.0000
  H   H125      1.0  0.72646  0.69819  0.33387  1.0000
  H   H126      1.0  0.81511  0.70052  0.38626  1.0000
  C   C214      1.0  0.71637  0.79957  0.37044  1.0000
  C   C215      1.0  0.75112  0.81847  0.35713  1.0000
  C   C216      1.0  0.76745  0.80095  0.33002  1.0000
  H   H127      1.0  0.70411  0.81213  0.38800  1.0000
  H   H128      1.0  0.79274  0.81465  0.33336  1.0000
  C   C217      1.0  0.80419  0.54314  0.33016  1.0000
  C   C218      1.0  0.82167  0.57695  0.35763  1.0000
  C   C219      1.0  0.80275  0.59276  0.37115  1.0000
  H   H129      1.0  0.81792  0.53160  0.33350  1.0000
  H   H130      1.0  0.81531  0.61759  0.38870  1.0000
  C   C220      1.0  0.71651  0.92004  0.37032  1.0000
  C   C221      1.0  0.69759  0.93586  0.35705  1.0000
  C   C222      1.0  0.71508  0.96970  0.32972  1.0000
  H   H131      1.0  0.70394  0.89521  0.38791  1.0000
  H   H132      1.0  0.70138  0.98127  0.33342  1.0000
  C   C223      1.0  0.59952  0.74901  0.36940  1.0000
  C   C224      1.0  0.66191  0.75143  0.35600  1.0000
  N   N61       1.0  0.65119  0.75934  0.43275  1.0000
  C   C225      1.0  0.62116  0.75730  0.44507  1.0000
  N   N62       1.0  0.61494  0.76639  0.52655  1.0000
  H   H133      1.0  0.59365  0.76498  0.53952  1.0000
  H   H134      1.0  0.63086  0.77241  0.57586  1.0000
  C   C226      1.0  0.76689  0.85368  0.36943  1.0000
  C   C227      1.0  0.76470  0.91378  0.35622  1.0000
  N   N63       1.0  0.75662  0.89504  0.43283  1.0000
  C   C228      1.0  0.75854  0.86699  0.44516  1.0000
  N   N64       1.0  0.74939  0.85171  0.52667  1.0000
  H   H135      1.0  0.75095  0.83192  0.53985  1.0000
  H   H136      1.0  0.74353  0.86173  0.57602  1.0000
  C   C229      1.0  0.66238  0.91637  0.36921  1.0000
  C   C230      1.0  0.60227  0.85406  0.35564  1.0000
  N   N65       1.0  0.62102  0.86466  0.43224  1.0000
  C   C231      1.0  0.64904  0.89464  0.44481  1.0000
  N   N66       1.0  0.66432  0.90066  0.52630  1.0000
  H   H137      1.0  0.68397  0.92207  0.53978  1.0000
  H   H138      1.0  0.65416  0.88480  0.57564  1.0000
  C   C232      1.0  0.91961  0.76370  0.36963  1.0000
  C   C233      1.0  0.85728  0.76145  0.35526  1.0000
  N   N67       1.0  0.86789  0.75347  0.43214  1.0000
  C   C234      1.0  0.89787  0.75547  0.44503  1.0000
  N   N68       1.0  0.90389  0.74634  0.52669  1.0000
  H   H139      1.0  0.92514  0.74772  0.54006  1.0000
  H   H140      1.0  0.88788  0.74035  0.57576  1.0000
  C   C235      1.0  0.75225  0.65909  0.36909  1.0000
  C   C236      1.0  0.75466  0.59913  0.35629  1.0000
  N   N69       1.0  0.76258  0.61787  0.43287  1.0000
  C   C237      1.0  0.76056  0.64588  0.44499  1.0000
  N   N70       1.0  0.76966  0.66126  0.52636  1.0000
  H   H141      1.0  0.76825  0.68116  0.53915  1.0000
  H   H142      1.0  0.77570  0.65142  0.57577  1.0000
  C   C238      1.0  0.85688  0.59642  0.36985  1.0000
  C   C239      1.0  0.91693  0.65873  0.35642  1.0000
  N   N71       1.0  0.89823  0.64809  0.43309  1.0000
  C   C240      1.0  0.87021  0.61811  0.44553  1.0000
  N   N72       1.0  0.85497  0.61198  0.52709  1.0000
  H   H143      1.0  0.83520  0.59062  0.54035  1.0000
  H   H144      1.0  0.86499  0.62788  0.57639  1.0000
