data_image0
_chemical_formula_structural       C2NH2CH2NC4NC2HCHC2NH2CNCNC2NCNH2C2NCNH3NCHN2CHNCHNCHC6H3C6H3C6H3C6H3C6H3CHNCHNCHCNC2NCNH2C2NH2C2NCNH2C2NCNH2C2NCNH2
_chemical_formula_sum              "C72 N27 H45"
_cell_length_a       30.2904
_cell_length_b       30.2904
_cell_length_c       14.7216
_cell_angle_alpha    90
_cell_angle_beta     90
_cell_angle_gamma    120

_space_group_name_H-M_alt    "P 1"
_space_group_IT_number       1

loop_
  _space_group_symop_operation_xyz
  'x, y, z'

loop_
  _atom_site_type_symbol
  _atom_site_label
  _atom_site_symmetry_multiplicity
  _atom_site_fract_x
  _atom_site_fract_y
  _atom_site_fract_z
  _atom_site_occupancy
  C   C1        1.0  0.06747  0.53610  0.34552  1.0000
  C   C2        1.0  0.03864  0.52160  0.26381  1.0000
  N   N1        1.0  0.05950  0.53193  0.17968  1.0000
  H   H1        1.0  0.09619  0.55025  0.17058  1.0000
  H   H2        1.0  0.03788  0.52106  0.12597  1.0000
  C   C3        1.0  0.12159  0.56323  0.34843  1.0000
  H   H3        1.0  0.12945  0.63691  0.34583  1.0000
  H   H4        1.0  0.12961  0.49749  0.35140  1.0000
  N   N2        1.0  0.04142  0.52320  0.42554  1.0000
  C   C4        1.0  0.20282  0.56324  0.35483  1.0000
  C   C5        1.0  0.20271  0.64463  0.35222  1.0000
  C   C6        1.0  0.14888  0.61729  0.34798  1.0000
  C   C7        1.0  0.14897  0.53656  0.35124  1.0000
  N   N3        1.0  0.25583  0.53957  0.28038  1.0000
  C   C8        1.0  0.29921  0.53695  0.27421  1.0000
  C   C9        1.0  0.25632  0.72496  0.27375  1.0000
  H   H5        1.0  0.24379  0.70868  0.21125  1.0000
  C   C10       1.0  0.22890  0.61705  0.35611  1.0000
  H   H6        1.0  0.26804  0.63667  0.35896  1.0000
  C   C11       1.0  0.23218  0.53900  0.35950  1.0000
  C   C12       1.0  0.25892  0.54159  0.44053  1.0000
  N   N4        1.0  0.24400  0.54726  0.52438  1.0000
  H   H7        1.0  0.21193  0.54661  0.53398  1.0000
  H   H8        1.0  0.26417  0.54985  0.57769  1.0000
  C   C13       1.0  0.23195  0.69825  0.35383  1.0000
  N   N5        1.0  0.25771  0.71887  0.43243  1.0000
  C   C14       1.0  0.96072  0.48275  0.35054  1.0000
  N   N6        1.0  0.98675  0.49564  0.27070  1.0000
  C   C15       1.0  0.48761  0.53624  0.34550  1.0000
  C   C16       1.0  0.54098  0.48286  0.35056  1.0000
  N   N7        1.0  0.52813  0.49604  0.27071  1.0000
  C   C17       1.0  0.50217  0.52197  0.26380  1.0000
  N   N8        1.0  0.49186  0.53251  0.17966  1.0000
  H   H9        1.0  0.47351  0.55084  0.17054  1.0000
  H   H10       1.0  0.50275  0.52178  0.12596  1.0000
  C   C18       1.0  0.48749  0.95609  0.34533  1.0000
  C   C19       1.0  0.54097  0.06283  0.35048  1.0000
  N   N9        1.0  0.52782  0.03683  0.27061  1.0000
  C   C20       1.0  0.50186  0.98494  0.26366  1.0000
  N   N10       1.0  0.49133  0.96410  0.17950  1.0000
  H   H11       1.0  0.47295  0.92742  0.17037  1.0000
  H   H12       1.0  0.50211  0.98574  0.12581  1.0000
  H   H13       1.0  0.31584  0.54155  0.21182  1.0000
  N   N11       1.0  0.48493  0.72146  0.27989  1.0000
  C   C21       1.0  0.48754  0.76747  0.27396  1.0000
  H   H14       1.0  0.48374  0.78007  0.21157  1.0000
  N   N12       1.0  0.30233  0.76834  0.27988  1.0000
  N   N13       1.0  0.77236  0.47889  0.27841  1.0000
  C   C22       1.0  0.72904  0.48159  0.27212  1.0000
  H   H15       1.0  0.71214  0.47657  0.20990  1.0000
  N   N14       1.0  0.54489  0.29835  0.27865  1.0000
  C   C23       1.0  0.54234  0.25240  0.27232  1.0000
  H   H16       1.0  0.54734  0.24065  0.20996  1.0000
  N   N15       1.0  0.72565  0.25101  0.27807  1.0000
  C   C24       1.0  0.77158  0.29445  0.27193  1.0000
  H   H17       1.0  0.78385  0.31105  0.20958  1.0000
  C   C25       1.0  0.46044  0.64443  0.35472  1.0000
  C   C26       1.0  0.40663  0.61668  0.35624  1.0000
  C   C27       1.0  0.37906  0.56292  0.35243  1.0000
  C   C28       1.0  0.40641  0.53642  0.34842  1.0000
  C   C29       1.0  0.46048  0.56323  0.34838  1.0000
  C   C30       1.0  0.48713  0.61728  0.35073  1.0000
  H   H18       1.0  0.38680  0.49737  0.34662  1.0000
  H   H19       1.0  0.52620  0.63701  0.35059  1.0000
  H   H20       1.0  0.38699  0.63618  0.35918  1.0000
  C   C31       1.0  0.37930  0.82073  0.35496  1.0000
  C   C32       1.0  0.40706  0.79468  0.35660  1.0000
  C   C33       1.0  0.46083  0.82088  0.35260  1.0000
  C   C34       1.0  0.48730  0.87471  0.34809  1.0000
  C   C35       1.0  0.46049  0.90197  0.34821  1.0000
  C   C36       1.0  0.40644  0.87457  0.35076  1.0000
  H   H21       1.0  0.52635  0.89415  0.34605  1.0000
  H   H22       1.0  0.38671  0.89390  0.35061  1.0000
  H   H23       1.0  0.38757  0.75555  0.35951  1.0000
  C   C37       1.0  0.82536  0.45560  0.35346  1.0000
  C   C38       1.0  0.79926  0.40179  0.35350  1.0000
  C   C39       1.0  0.82551  0.37425  0.35090  1.0000
  C   C40       1.0  0.87939  0.40160  0.34914  1.0000
  C   C41       1.0  0.90666  0.45566  0.35051  1.0000
  C   C42       1.0  0.87925  0.48231  0.35231  1.0000
  H   H24       1.0  0.89883  0.38198  0.34819  1.0000
  H   H25       1.0  0.89858  0.52136  0.35357  1.0000
  H   H26       1.0  0.76010  0.38216  0.35508  1.0000
  C   C43       1.0  0.56801  0.37457  0.35347  1.0000
  C   C44       1.0  0.62182  0.40224  0.35358  1.0000
  C   C45       1.0  0.64940  0.45603  0.35088  1.0000
  C   C46       1.0  0.62209  0.48260  0.34923  1.0000
  C   C47       1.0  0.56803  0.45586  0.35054  1.0000
  C   C48       1.0  0.54135  0.40180  0.35232  1.0000
  H   H27       1.0  0.64174  0.52167  0.34834  1.0000
  H   H28       1.0  0.50229  0.38211  0.35357  1.0000
  H   H29       1.0  0.64143  0.38270  0.35527  1.0000
  C   C49       1.0  0.64916  0.19821  0.35340  1.0000
  C   C50       1.0  0.62143  0.22429  0.35346  1.0000
  C   C51       1.0  0.56764  0.19802  0.35092  1.0000
  C   C52       1.0  0.54112  0.14414  0.34943  1.0000
  C   C53       1.0  0.56794  0.11689  0.35050  1.0000
  C   C54       1.0  0.62200  0.14432  0.35203  1.0000
  H   H30       1.0  0.50206  0.12468  0.34862  1.0000
  H   H31       1.0  0.64174  0.12500  0.35311  1.0000
  H   H32       1.0  0.64094  0.26345  0.35503  1.0000
  C   C55       1.0  0.98969  0.49737  0.43121  1.0000
  H   H33       1.0  0.97255  0.48887  0.49359  1.0000
  N   N16       1.0  0.50045  0.52304  0.42552  1.0000
  C   C56       1.0  0.52628  0.49714  0.43122  1.0000
  H   H34       1.0  0.53472  0.48845  0.49359  1.0000
  N   N17       1.0  0.50064  0.98210  0.42537  1.0000
  C   C57       1.0  0.52658  0.03384  0.43111  1.0000
  H   H35       1.0  0.53521  0.05095  0.49350  1.0000
  C   C58       1.0  0.32544  0.53854  0.35456  1.0000
  N   N18       1.0  0.30434  0.54289  0.43312  1.0000
  C   C59       1.0  0.48465  0.69806  0.35908  1.0000
  C   C60       1.0  0.48524  0.79166  0.35430  1.0000
  N   N19       1.0  0.48020  0.76593  0.43286  1.0000
  C   C61       1.0  0.48143  0.72178  0.44025  1.0000
  N   N20       1.0  0.47525  0.70094  0.52401  1.0000
  H   H36       1.0  0.47613  0.66964  0.53366  1.0000
  H   H37       1.0  0.47251  0.71845  0.57727  1.0000
  C   C62       1.0  0.32567  0.79131  0.35918  1.0000
  C   C63       1.0  0.30186  0.76423  0.44018  1.0000
  N   N21       1.0  0.32266  0.77864  0.52402  1.0000
  H   H38       1.0  0.35382  0.81090  0.53392  1.0000
  H   H39       1.0  0.30495  0.75839  0.57716  1.0000
  C   C64       1.0  0.79598  0.47986  0.35774  1.0000
  C   C65       1.0  0.70304  0.48040  0.35251  1.0000
  N   N22       1.0  0.72412  0.47636  0.43138  1.0000
  C   C66       1.0  0.76955  0.47766  0.43893  1.0000
  N   N23       1.0  0.78450  0.47210  0.52284  1.0000
  H   H40       1.0  0.81651  0.47263  0.53244  1.0000
  H   H41       1.0  0.76439  0.46968  0.57613  1.0000
  C   C67       1.0  0.54371  0.32096  0.35792  1.0000
  C   C68       1.0  0.54325  0.22723  0.35247  1.0000
  N   N24       1.0  0.54714  0.25244  0.43121  1.0000
  C   C69       1.0  0.54586  0.29658  0.43891  1.0000
  N   N25       1.0  0.55128  0.31696  0.52288  1.0000
  H   H42       1.0  0.55077  0.34845  0.53256  1.0000
  H   H43       1.0  0.55367  0.29923  0.57613  1.0000
  C   C70       1.0  0.70281  0.22766  0.35742  1.0000
  C   C71       1.0  0.79630  0.32060  0.35220  1.0000
  N   N26       1.0  0.77098  0.29971  0.43103  1.0000
  C   C72       1.0  0.72681  0.25431  0.43862  1.0000
  N   N27       1.0  0.70624  0.23949  0.52252  1.0000
  H   H44       1.0  0.67487  0.20738  0.53220  1.0000
  H   H45       1.0  0.72391  0.25964  0.57576  1.0000
