data_image0
_chemical_formula_structural       C4NOCHC4NOCHC2NOCHC2NOCHC2NOCHC2NOCHC4NOCHC4NOCHC4NOCHC4NOCHC2NOCHC2NOCHC2NOCHC2NOCHC4NOCHC4NOCHC4NOCHC4NOCHC6H3C6H3C6H3C6H3C6H3C6H3C6H3C6H3C6H3C6H3C6H3C6H3C2NOCHC2NOCHC4NOCHC4NOCHC4NOCHC4NOCHC2NOCHC2NOCHC2NOCHC2NOCHC4NOCHC4NOCHC4NOCHC4NOCHC2NOCHC2NOCHC2NOCHC2NOCH
_chemical_formula_sum              "C216 N36 O36 H72"
_cell_length_a       34.6603
_cell_length_b       34.5023
_cell_length_c       14.886
_cell_angle_alpha    90
_cell_angle_beta     90
_cell_angle_gamma    90.2663

_space_group_name_H-M_alt    "P 1"
_space_group_IT_number       1

loop_
  _space_group_symop_operation_xyz
  'x, y, z'

loop_
  _atom_site_type_symbol
  _atom_site_label
  _atom_site_symmetry_multiplicity
  _atom_site_fract_x
  _atom_site_fract_y
  _atom_site_fract_z
  _atom_site_occupancy
  C   C1        1.0  0.97170  0.53147  0.33655  1.0000
  C   C2        1.0  0.97117  0.49945  0.27688  1.0000
  C   C3        1.0  0.00008  0.47118  0.27812  1.0000
  C   C4        1.0  0.03165  0.47218  0.33861  1.0000
  N   N1        1.0  0.99193  0.44627  0.21237  1.0000
  O   O1        1.0  0.94499  0.49250  0.21042  1.0000
  C   C5        1.0  0.95930  0.45907  0.17446  1.0000
  H   H1        1.0  0.94682  0.44561  0.12066  1.0000
  C   C6        1.0  0.47134  0.97147  0.33517  1.0000
  C   C7        1.0  0.47101  0.00307  0.27436  1.0000
  C   C8        1.0  0.50010  0.03141  0.27463  1.0000
  C   C9        1.0  0.53160  0.03088  0.33533  1.0000
  N   N2        1.0  0.49207  0.05598  0.20827  1.0000
  O   O2        1.0  0.44480  0.00960  0.20786  1.0000
  C   C10       1.0  0.45941  0.04278  0.17062  1.0000
  H   H2        1.0  0.44676  0.05614  0.11705  1.0000
  C   C11       1.0  0.07706  0.26706  0.27547  1.0000
  C   C12       1.0  0.08564  0.30675  0.27461  1.0000
  N   N3        1.0  0.11071  0.31258  0.20810  1.0000
  O   O3        1.0  0.09653  0.24783  0.20974  1.0000
  C   C13       1.0  0.11677  0.27763  0.17136  1.0000
  H   H3        1.0  0.13488  0.27364  0.11811  1.0000
  C   C14       1.0  0.96930  0.72656  0.27581  1.0000
  C   C15       1.0  0.96047  0.68688  0.27618  1.0000
  N   N4        1.0  0.98036  0.67087  0.20938  1.0000
  O   O4        1.0  0.99463  0.73565  0.20897  1.0000
  C   C16       1.0  0.00040  0.69995  0.17152  1.0000
  H   H4        1.0  0.01809  0.69585  0.11754  1.0000
  C   C17       1.0  0.72633  0.03336  0.28248  1.0000
  C   C18       1.0  0.68690  0.04219  0.28159  1.0000
  N   N5        1.0  0.67120  0.02217  0.21432  1.0000
  O   O5        1.0  0.73556  0.00794  0.21589  1.0000
  C   C19       1.0  0.70016  0.00195  0.17760  1.0000
  H   H5        1.0  0.69631  0.98443  0.12303  1.0000
  C   C20       1.0  0.26673  0.92573  0.27081  1.0000
  C   C21       1.0  0.30613  0.91689  0.27068  1.0000
  N   N6        1.0  0.31174  0.89146  0.20469  1.0000
  O   O6        1.0  0.24750  0.90603  0.20514  1.0000
  C   C22       1.0  0.27696  0.88535  0.16771  1.0000
  H   H6        1.0  0.27290  0.86717  0.11441  1.0000
  C   C23       1.0  0.43322  0.83273  0.33835  1.0000
  C   C24       1.0  0.46075  0.81674  0.27869  1.0000
  C   C25       1.0  0.46960  0.77716  0.27957  1.0000
  C   C26       1.0  0.45219  0.75059  0.33988  1.0000
  N   N7        1.0  0.49485  0.77118  0.21363  1.0000
  O   O7        1.0  0.48015  0.83570  0.21216  1.0000
  C   C27       1.0  0.50090  0.80596  0.17577  1.0000
  H   H7        1.0  0.51887  0.80976  0.12212  1.0000
  C   C28       1.0  0.56942  0.16976  0.33332  1.0000
  C   C29       1.0  0.58705  0.19639  0.27339  1.0000
  C   C30       1.0  0.57798  0.23588  0.27451  1.0000
  C   C31       1.0  0.55085  0.25197  0.33488  1.0000
  N   N8        1.0  0.59866  0.25266  0.20977  1.0000
  O   O8        1.0  0.61332  0.18817  0.20805  1.0000
  C   C32       1.0  0.61935  0.22418  0.17224  1.0000
  H   H8        1.0  0.63764  0.22891  0.11956  1.0000
  C   C33       1.0  0.83321  0.56857  0.32859  1.0000
  C   C34       1.0  0.80709  0.58602  0.26763  1.0000
  C   C35       1.0  0.76758  0.57732  0.26875  1.0000
  C   C36       1.0  0.75089  0.55072  0.33005  1.0000
  N   N9        1.0  0.75138  0.59785  0.20317  1.0000
  O   O9        1.0  0.81586  0.61193  0.20152  1.0000
  C   C37       1.0  0.78019  0.61809  0.16515  1.0000
  H   H9        1.0  0.77591  0.63622  0.11190  1.0000
  C   C38       1.0  0.17002  0.43432  0.33777  1.0000
  C   C39       1.0  0.19617  0.41682  0.27700  1.0000
  C   C40       1.0  0.23571  0.42522  0.27883  1.0000
  C   C41       1.0  0.25246  0.45140  0.34108  1.0000
  N   N10       1.0  0.25185  0.40500  0.21262  1.0000
  O   O10       1.0  0.18733  0.39134  0.20998  1.0000
  C   C42       1.0  0.22298  0.38523  0.17357  1.0000
  H   H10       1.0  0.22725  0.36729  0.11998  1.0000
  C   C43       1.0  0.11818  0.10511  0.28280  1.0000
  C   C44       1.0  0.14050  0.07135  0.28187  1.0000
  N   N11       1.0  0.15350  0.06694  0.19835  1.0000
  O   O11       1.0  0.11688  0.12196  0.20011  1.0000
  C   C45       1.0  0.14004  0.09745  0.15224  1.0000
  H   H11       1.0  0.14497  0.10095  0.08509  1.0000
  C   C46       1.0  0.88458  0.89950  0.28048  1.0000
  C   C47       1.0  0.86221  0.93321  0.28249  1.0000
  N   N12       1.0  0.84845  0.93843  0.19988  1.0000
  O   O12       1.0  0.88528  0.88355  0.19681  1.0000
  C   C48       1.0  0.86166  0.90848  0.15142  1.0000
  H   H12       1.0  0.85613  0.90565  0.08435  1.0000
  C   C49       1.0  0.89810  0.11925  0.29070  1.0000
  C   C50       1.0  0.93225  0.14111  0.29058  1.0000
  N   N13       1.0  0.93624  0.15585  0.20844  1.0000
  O   O13       1.0  0.88077  0.11966  0.20859  1.0000
  C   C51       1.0  0.90504  0.14394  0.16249  1.0000
  H   H13       1.0  0.90159  0.14961  0.09566  1.0000
  C   C52       1.0  0.10380  0.88595  0.27514  1.0000
  C   C53       1.0  0.06980  0.86382  0.27521  1.0000
  N   N14       1.0  0.06472  0.85085  0.19179  1.0000
  O   O14       1.0  0.12016  0.88713  0.19198  1.0000
  C   C54       1.0  0.09524  0.86386  0.14495  1.0000
  H   H14       1.0  0.09786  0.85951  0.07737  1.0000
  C   C55       1.0  0.36162  0.54464  0.32884  1.0000
  C   C56       1.0  0.38266  0.55632  0.25193  1.0000
  C   C57       1.0  0.40585  0.58952  0.25312  1.0000
  C   C58       1.0  0.40880  0.61386  0.32921  1.0000
  N   N15       1.0  0.42473  0.59063  0.17523  1.0000
  O   O15       1.0  0.38707  0.53607  0.17401  1.0000
  C   C59       1.0  0.41267  0.55939  0.12929  1.0000
  H   H15       1.0  0.42321  0.55257  0.06726  1.0000
  C   C60       1.0  0.64129  0.45815  0.35052  1.0000
  C   C61       1.0  0.64027  0.43318  0.27516  1.0000
  C   C62       1.0  0.61709  0.39982  0.27483  1.0000
  C   C63       1.0  0.59449  0.38865  0.34964  1.0000
  N   N16       1.0  0.61841  0.38526  0.19207  1.0000
  O   O16       1.0  0.65597  0.44000  0.19275  1.0000
  C   C64       1.0  0.64228  0.40867  0.14593  1.0000
  H   H16       1.0  0.64730  0.40513  0.07884  1.0000
  C   C65       1.0  0.54619  0.64273  0.34706  1.0000
  C   C66       1.0  0.57046  0.64058  0.27080  1.0000
  C   C67       1.0  0.60378  0.61774  0.27145  1.0000
  C   C68       1.0  0.61558  0.59657  0.34799  1.0000
  N   N17       1.0  0.61730  0.61724  0.18774  1.0000
  O   O17       1.0  0.56272  0.65430  0.18694  1.0000
  C   C69       1.0  0.59348  0.63991  0.14010  1.0000
  H   H17       1.0  0.59617  0.64328  0.07223  1.0000
  C   C70       1.0  0.45722  0.36004  0.32810  1.0000
  C   C71       1.0  0.44567  0.38092  0.25097  1.0000
  C   C72       1.0  0.41245  0.40366  0.25162  1.0000
  C   C73       1.0  0.38801  0.40642  0.32748  1.0000
  N   N18       1.0  0.41147  0.42257  0.17365  1.0000
  O   O18       1.0  0.46606  0.38562  0.17340  1.0000
  C   C74       1.0  0.44282  0.41099  0.12830  1.0000
  H   H18       1.0  0.44965  0.42154  0.06619  1.0000
  C   C75       1.0  0.07916  0.37357  0.33655  1.0000
  C   C76       1.0  0.11841  0.38490  0.33734  1.0000
  C   C77       1.0  0.12991  0.42430  0.33871  1.0000
  C   C78       1.0  0.10067  0.45286  0.34035  1.0000
  C   C79       1.0  0.06090  0.44292  0.33941  1.0000
  C   C80       1.0  0.05089  0.40304  0.33793  1.0000
  H   H19       1.0  0.10852  0.48149  0.33861  1.0000
  H   H20       1.0  0.02236  0.39522  0.33767  1.0000
  H   H21       1.0  0.13916  0.36388  0.33957  1.0000
  C   C81       1.0  0.92373  0.62988  0.33507  1.0000
  C   C82       1.0  0.88452  0.61836  0.33249  1.0000
  C   C83       1.0  0.87324  0.57891  0.33104  1.0000
  C   C84       1.0  0.90265  0.55053  0.33316  1.0000
  C   C85       1.0  0.94236  0.56064  0.33532  1.0000
  C   C86       1.0  0.95218  0.60058  0.33579  1.0000
  H   H22       1.0  0.89492  0.52186  0.33289  1.0000
  H   H23       1.0  0.98067  0.60856  0.33701  1.0000
  H   H24       1.0  0.86364  0.63927  0.33183  1.0000
  C   C87       1.0  0.63005  0.07906  0.33867  1.0000
  C   C88       1.0  0.61883  0.11844  0.33700  1.0000
  C   C89       1.0  0.57962  0.12965  0.33474  1.0000
  C   C90       1.0  0.55118  0.10007  0.33454  1.0000
  C   C91       1.0  0.56098  0.06023  0.33559  1.0000
  C   C92       1.0  0.60066  0.05041  0.33740  1.0000
  H   H25       1.0  0.52269  0.10775  0.33351  1.0000
  H   H26       1.0  0.60833  0.02179  0.33823  1.0000
  H   H27       1.0  0.63975  0.13950  0.33770  1.0000
  C   C93       1.0  0.37273  0.92357  0.33269  1.0000
  C   C94       1.0  0.38383  0.88415  0.33440  1.0000
  C   C95       1.0  0.42301  0.87284  0.33642  1.0000
  C   C96       1.0  0.45155  0.90233  0.33628  1.0000
  C   C97       1.0  0.44189  0.94219  0.33503  1.0000
  C   C98       1.0  0.40225  0.95211  0.33344  1.0000
  H   H28       1.0  0.48003  0.89457  0.33728  1.0000
  H   H29       1.0  0.39467  0.98076  0.33273  1.0000
  H   H30       1.0  0.36284  0.86316  0.33429  1.0000
  C   C99       1.0  0.06577  0.14286  0.35324  1.0000
  C   C100      1.0  0.02712  0.13010  0.35922  1.0000
  C   C101      1.0  0.99607  0.15637  0.35674  1.0000
  C   C102      1.0  0.00417  0.19632  0.34728  1.0000
  C   C103      1.0  0.04267  0.21028  0.34174  1.0000
  C   C104      1.0  0.07317  0.18296  0.34360  1.0000
  H   H31       1.0  0.98168  0.21545  0.34540  1.0000
  H   H32       1.0  0.10122  0.19239  0.34206  1.0000
  H   H33       1.0  0.02145  0.10098  0.36476  1.0000
  C   C105      1.0  0.93729  0.86090  0.34697  1.0000
  C   C106      1.0  0.97604  0.87355  0.34892  1.0000
  C   C107      1.0  0.00690  0.84708  0.34440  1.0000
  C   C108      1.0  0.99849  0.80707  0.33746  1.0000
  C   C109      1.0  0.95984  0.79328  0.33651  1.0000
  C   C110      1.0  0.92955  0.82080  0.33999  1.0000
  H   H34       1.0  0.02082  0.78774  0.33750  1.0000
  H   H35       1.0  0.90142  0.81159  0.33895  1.0000
  H   H36       1.0  0.98191  0.90265  0.35369  1.0000
  C   C111      1.0  0.86003  0.06568  0.35716  1.0000
  C   C112      1.0  0.87226  0.02676  0.35853  1.0000
  C   C113      1.0  0.84570  0.99573  0.35370  1.0000
  C   C114      1.0  0.80596  0.00414  0.34612  1.0000
  C   C115      1.0  0.79254  0.04296  0.34514  1.0000
  C   C116      1.0  0.82019  0.07341  0.34946  1.0000
  H   H37       1.0  0.78657  0.98166  0.34542  1.0000
  H   H38       1.0  0.81127  0.10166  0.34826  1.0000
  H   H39       1.0  0.90120  0.02088  0.36291  1.0000
  C   C117      1.0  0.14295  0.93795  0.34505  1.0000
  C   C118      1.0  0.13070  0.97681  0.35021  1.0000
  C   C119      1.0  0.15726  0.00790  0.34833  1.0000
  C   C120      1.0  0.19699  0.99962  0.34021  1.0000
  C   C121      1.0  0.21045  0.96087  0.33520  1.0000
  C   C122      1.0  0.18282  0.93034  0.33670  1.0000
  H   H40       1.0  0.21630  0.02216  0.33883  1.0000
  H   H41       1.0  0.19183  0.90212  0.33580  1.0000
  H   H42       1.0  0.10177  0.98261  0.35539  1.0000
  C   C123      1.0  0.43847  0.64212  0.33506  1.0000
  C   C124      1.0  0.47723  0.62986  0.33757  1.0000
  C   C125      1.0  0.50793  0.65683  0.34081  1.0000
  C   C126      1.0  0.49941  0.69684  0.34008  1.0000
  C   C127      1.0  0.46072  0.71012  0.33900  1.0000
  C   C128      1.0  0.43053  0.68221  0.33716  1.0000
  H   H43       1.0  0.52165  0.71643  0.34371  1.0000
  H   H44       1.0  0.40241  0.69111  0.33399  1.0000
  H   H45       1.0  0.48319  0.60076  0.33730  1.0000
  C   C129      1.0  0.56484  0.36039  0.34269  1.0000
  C   C130      1.0  0.52612  0.37273  0.33942  1.0000
  C   C131      1.0  0.49540  0.34584  0.33478  1.0000
  C   C132      1.0  0.50381  0.30582  0.33486  1.0000
  C   C133      1.0  0.54247  0.29246  0.33655  1.0000
  C   C134      1.0  0.57272  0.32029  0.33978  1.0000
  H   H46       1.0  0.48155  0.28629  0.33014  1.0000
  H   H47       1.0  0.60080  0.31132  0.34339  1.0000
  H   H48       1.0  0.52019  0.40184  0.34014  1.0000
  C   C135      1.0  0.64322  0.56647  0.34198  1.0000
  C   C136      1.0  0.63024  0.52772  0.34643  1.0000
  C   C137      1.0  0.65623  0.49640  0.34418  1.0000
  C   C138      1.0  0.69612  0.50434  0.33650  1.0000
  C   C139      1.0  0.71031  0.54296  0.33257  1.0000
  C   C140      1.0  0.68324  0.57374  0.33427  1.0000
  H   H49       1.0  0.71502  0.48163  0.33474  1.0000
  H   H50       1.0  0.69278  0.60188  0.33404  1.0000
  H   H51       1.0  0.60119  0.52219  0.35104  1.0000
  C   C141      1.0  0.36026  0.43637  0.33381  1.0000
  C   C142      1.0  0.37306  0.47521  0.33202  1.0000
  C   C143      1.0  0.34686  0.50635  0.33523  1.0000
  C   C144      1.0  0.30695  0.49816  0.34117  1.0000
  C   C145      1.0  0.29299  0.45942  0.34210  1.0000
  C   C146      1.0  0.32024  0.42882  0.33959  1.0000
  H   H52       1.0  0.28786  0.52072  0.34029  1.0000
  H   H53       1.0  0.31091  0.40062  0.34061  1.0000
  H   H54       1.0  0.40209  0.48096  0.32821  1.0000
  C   C147      1.0  0.03224  0.50423  0.39818  1.0000
  C   C148      1.0  0.00330  0.53249  0.39702  1.0000
  N   N19       1.0  0.01154  0.55749  0.46253  1.0000
  O   O19       1.0  0.05853  0.51125  0.46435  1.0000
  C   C149      1.0  0.04422  0.54469  0.50031  1.0000
  H   H55       1.0  0.05682  0.55826  0.55381  1.0000
  C   C150      1.0  0.53192  0.99928  0.39618  1.0000
  C   C151      1.0  0.50286  0.97090  0.39579  1.0000
  N   N20       1.0  0.51083  0.94640  0.46233  1.0000
  O   O20       1.0  0.55807  0.99281  0.46282  1.0000
  C   C152      1.0  0.54353  0.95956  0.49988  1.0000
  H   H56       1.0  0.55594  0.94644  0.55407  1.0000
  C   C153      1.0  0.06882  0.33341  0.33533  1.0000
  C   C154      1.0  0.04209  0.31738  0.39712  1.0000
  C   C155      1.0  0.03368  0.27764  0.39831  1.0000
  C   C156      1.0  0.05061  0.25093  0.33784  1.0000
  N   N21       1.0  0.00948  0.27167  0.46650  1.0000
  O   O21       1.0  0.02348  0.33644  0.46443  1.0000
  C   C157      1.0  0.00357  0.30659  0.50348  1.0000
  H   H57       1.0  0.98639  0.31040  0.55846  1.0000
  C   C158      1.0  0.93381  0.67008  0.33702  1.0000
  C   C159      1.0  0.91652  0.69608  0.39851  1.0000
  C   C160      1.0  0.92525  0.73572  0.39798  1.0000
  C   C161      1.0  0.95155  0.75266  0.33640  1.0000
  N   N22       1.0  0.90523  0.75169  0.46468  1.0000
  O   O22       1.0  0.89103  0.68699  0.46506  1.0000
  C   C162      1.0  0.88520  0.72264  0.50256  1.0000
  H   H58       1.0  0.86749  0.72672  0.55651  1.0000
  C   C163      1.0  0.67002  0.06900  0.34179  1.0000
  C   C164      1.0  0.69574  0.08644  0.40394  1.0000
  C   C165      1.0  0.73514  0.07771  0.40465  1.0000
  C   C166      1.0  0.75215  0.05125  0.34377  1.0000
  N   N23       1.0  0.75082  0.09785  0.47183  1.0000
  O   O23       1.0  0.68653  0.11202  0.47028  1.0000
  C   C167      1.0  0.72186  0.11796  0.50878  1.0000
  H   H59       1.0  0.72575  0.13570  0.56294  1.0000
  C   C168      1.0  0.33281  0.93392  0.33126  1.0000
  C   C169      1.0  0.31702  0.96110  0.39221  1.0000
  C   C170      1.0  0.27757  0.96977  0.39268  1.0000
  C   C171      1.0  0.25086  0.95266  0.33226  1.0000
  N   N24       1.0  0.27182  0.99446  0.46011  1.0000
  O   O24       1.0  0.33611  0.98009  0.45919  1.0000
  C   C172      1.0  0.30657  0.00036  0.49745  1.0000
  H   H60       1.0  0.31052  0.01801  0.55177  1.0000
  C   C173      1.0  0.42495  0.76664  0.40011  1.0000
  C   C174      1.0  0.41603  0.80617  0.39910  1.0000
  N   N25       1.0  0.39048  0.81202  0.46450  1.0000
  O   O25       1.0  0.40517  0.74753  0.46584  1.0000
  C   C175      1.0  0.38442  0.77724  0.50229  1.0000
  H   H61       1.0  0.36602  0.77331  0.55510  1.0000
  C   C176      1.0  0.53284  0.22530  0.39407  1.0000
  C   C177      1.0  0.54209  0.18582  0.39330  1.0000
  N   N26       1.0  0.52187  0.16920  0.45903  1.0000
  O   O26       1.0  0.50696  0.23367  0.46012  1.0000
  C   C178      1.0  0.50125  0.19774  0.49663  1.0000
  H   H62       1.0  0.48323  0.19310  0.54985  1.0000
  C   C179      1.0  0.77707  0.53291  0.39033  1.0000
  C   C180      1.0  0.81656  0.54179  0.38955  1.0000
  N   N27       1.0  0.83259  0.52207  0.45668  1.0000
  O   O27       1.0  0.76814  0.50785  0.45807  1.0000
  C   C181      1.0  0.80376  0.50193  0.49491  1.0000
  H   H63       1.0  0.80784  0.48478  0.54996  1.0000
  C   C182      1.0  0.22625  0.46941  0.40089  1.0000
  C   C183      1.0  0.18666  0.46095  0.39913  1.0000
  N   N28       1.0  0.17055  0.48093  0.46572  1.0000
  O   O28       1.0  0.23514  0.49469  0.46817  1.0000
  C   C184      1.0  0.19943  0.50085  0.50441  1.0000
  H   H64       1.0  0.19526  0.51829  0.55894  1.0000
  C   C185      1.0  0.14300  0.04620  0.35667  1.0000
  C   C186      1.0  0.12197  0.05722  0.43398  1.0000
  C   C187      1.0  0.09881  0.09023  0.43402  1.0000
  C   C188      1.0  0.09574  0.11505  0.35874  1.0000
  N   N29       1.0  0.07989  0.09058  0.51193  1.0000
  O   O29       1.0  0.11745  0.03632  0.51102  1.0000
  C   C189      1.0  0.09190  0.05911  0.55666  1.0000
  H   H65       1.0  0.08125  0.05169  0.61829  1.0000
  C   C190      1.0  0.86006  0.95736  0.35911  1.0000
  C   C191      1.0  0.88166  0.94548  0.43488  1.0000
  C   C192      1.0  0.90488  0.91255  0.43202  1.0000
  C   C193      1.0  0.90751  0.88873  0.35496  1.0000
  N   N30       1.0  0.92426  0.91129  0.50924  1.0000
  O   O30       1.0  0.88649  0.96538  0.51323  1.0000
  C   C194      1.0  0.91230  0.94205  0.55661  1.0000
  H   H66       1.0  0.92352  0.94892  0.61804  1.0000
  C   C195      1.0  0.95788  0.14175  0.36451  1.0000
  C   C196      1.0  0.94685  0.11958  0.44034  1.0000
  C   C197      1.0  0.91335  0.09695  0.43953  1.0000
  C   C198      1.0  0.88820  0.09548  0.36470  1.0000
  N   N31       1.0  0.91308  0.07654  0.51550  1.0000
  O   O31       1.0  0.96798  0.11345  0.51624  1.0000
  C   C199      1.0  0.94488  0.08746  0.56040  1.0000
  H   H67       1.0  0.95263  0.07523  0.62016  1.0000
  C   C200      1.0  0.04519  0.86151  0.35083  1.0000
  C   C201      1.0  0.05709  0.88237  0.42793  1.0000
  C   C202      1.0  0.09050  0.90514  0.42715  1.0000
  C   C203      1.0  0.11485  0.90801  0.35114  1.0000
  N   N32       1.0  0.09178  0.92394  0.50527  1.0000
  O   O32       1.0  0.03694  0.88690  0.50586  1.0000
  C   C204      1.0  0.06042  0.91227  0.55085  1.0000
  H   H68       1.0  0.05381  0.92270  0.61314  1.0000
  C   C205      1.0  0.38658  0.60308  0.40503  1.0000
  C   C206      1.0  0.36418  0.56918  0.40472  1.0000
  N   N33       1.0  0.35111  0.56415  0.48803  1.0000
  O   O33       1.0  0.38783  0.61947  0.48824  1.0000
  C   C207      1.0  0.36463  0.59445  0.53523  1.0000
  H   H69       1.0  0.35963  0.59752  0.60245  1.0000
  C   C208      1.0  0.59669  0.41286  0.42615  1.0000
  C   C209      1.0  0.61904  0.44664  0.42570  1.0000
  N   N34       1.0  0.61240  0.46481  0.50309  1.0000
  O   O34       1.0  0.57558  0.40966  0.50306  1.0000
  C   C210      1.0  0.58733  0.44224  0.54792  1.0000
  H   H70       1.0  0.57671  0.44959  0.60956  1.0000
  C   C211      1.0  0.59203  0.60002  0.42521  1.0000
  C   C212      1.0  0.55825  0.62192  0.42381  1.0000
  N   N35       1.0  0.54048  0.61611  0.50202  1.0000
  O   O35       1.0  0.59556  0.57994  0.50363  1.0000
  C   C213      1.0  0.56342  0.59218  0.54859  1.0000
  H   H71       1.0  0.55605  0.58173  0.61046  1.0000
  C   C214      1.0  0.39887  0.38447  0.40363  1.0000
  C   C215      1.0  0.43268  0.36240  0.40375  1.0000
  N   N36       1.0  0.43766  0.34954  0.48725  1.0000
  O   O36       1.0  0.38249  0.38573  0.48675  1.0000
  C   C216      1.0  0.40723  0.36257  0.53398  1.0000
  H   H72       1.0  0.40455  0.35829  0.60157  1.0000
