data_image0
_chemical_formula_structural       C3NC3NC5NC5NC36H26N4C3NC3NC5NC5NC36H26N4C3NC3NC5NC5NC36H26N5C2HCHNC2HCHNC2HCHNC2HCHNC2HCHNC2HCHC16H16C16H16C16H16CNC2NCHCNC2NCHCNC2NCHCNC2NCHCNC2NCHCNC2NCH
_chemical_formula_sum              "C246 N42 H144"
_cell_length_a       67.496
_cell_length_b       67.496
_cell_length_c       14.8885
_cell_angle_alpha    89.8352
_cell_angle_beta     90.1648
_cell_angle_gamma    120

_space_group_name_H-M_alt    "P 1"
_space_group_IT_number       1

loop_
  _space_group_symop_operation_xyz
  'x, y, z'

loop_
  _atom_site_type_symbol
  _atom_site_label
  _atom_site_symmetry_multiplicity
  _atom_site_fract_x
  _atom_site_fract_y
  _atom_site_fract_z
  _atom_site_occupancy
  C   C1        1.0  0.04734  0.50687  0.31679  1.0000
  C   C2        1.0  0.02368  0.49499  0.31711  1.0000
  C   C3        1.0  0.01611  0.51083  0.31912  1.0000
  N   N1        1.0  0.03542  0.53165  0.31984  1.0000
  C   C4        1.0  0.05479  0.53026  0.31851  1.0000
  C   C5        1.0  0.07809  0.54807  0.31910  1.0000
  C   C6        1.0  0.08547  0.57184  0.32016  1.0000
  N   N2        1.0  0.07251  0.58196  0.31946  1.0000
  C   C7        1.0  0.08540  0.60505  0.32072  1.0000
  C   C8        1.0  0.10814  0.61005  0.32251  1.0000
  C   C9        1.0  0.10818  0.58964  0.32185  1.0000
  C   C10       1.0  0.07792  0.62136  0.32023  1.0000
  C   C11       1.0  0.05459  0.61576  0.31927  1.0000
  N   N3        1.0  0.03528  0.59494  0.31990  1.0000
  C   C12       1.0  0.01591  0.59634  0.31852  1.0000
  C   C13       1.0  0.02337  0.61973  0.31683  1.0000
  C   C14       1.0  0.04702  0.63161  0.31726  1.0000
  C   C15       1.0  0.99262  0.57853  0.31904  1.0000
  C   C16       1.0  0.98523  0.55476  0.32011  1.0000
  N   N4        1.0  0.99819  0.54463  0.31929  1.0000
  C   C17       1.0  0.98530  0.52154  0.32060  1.0000
  C   C18       1.0  0.96257  0.51656  0.32260  1.0000
  C   C19       1.0  0.96252  0.53696  0.32197  1.0000
  C   C20       1.0  0.99278  0.50523  0.32002  1.0000
  C   C21       1.0  0.97543  0.48164  0.32060  1.0000
  C   C22       1.0  0.93653  0.43633  0.32490  1.0000
  C   C23       1.0  0.94475  0.44845  0.24290  1.0000
  C   C24       1.0  0.96382  0.47073  0.24067  1.0000
  C   C25       1.0  0.91622  0.41421  0.32750  1.0000
  C   C26       1.0  0.91169  0.39750  0.26086  1.0000
  C   C27       1.0  0.89148  0.37602  0.26230  1.0000
  C   C28       1.0  0.87495  0.37048  0.33040  1.0000
  C   C29       1.0  0.97521  0.58467  0.31797  1.0000
  C   C30       1.0  0.93646  0.59129  0.31556  1.0000
  C   C31       1.0  0.94675  0.58986  0.23478  1.0000
  C   C32       1.0  0.96576  0.58654  0.23581  1.0000
  C   C33       1.0  0.91633  0.59340  0.31453  1.0000
  C   C34       1.0  0.87554  0.59674  0.31513  1.0000
  C   C35       1.0  0.87819  0.58236  0.25373  1.0000
  C   C36       1.0  0.89815  0.58064  0.25366  1.0000
  C   C37       1.0  0.09525  0.64496  0.32092  1.0000
  C   C38       1.0  0.10662  0.65605  0.24090  1.0000
  C   C39       1.0  0.12557  0.67841  0.24311  1.0000
  C   C40       1.0  0.13390  0.69040  0.32518  1.0000
  C   C41       1.0  0.15404  0.71264  0.32769  1.0000
  C   C42       1.0  0.19492  0.75670  0.33060  1.0000
  C   C43       1.0  0.17818  0.75107  0.26303  1.0000
  C   C44       1.0  0.15816  0.72943  0.26159  1.0000
  C   C45       1.0  0.09551  0.54194  0.31809  1.0000
  C   C46       1.0  0.10481  0.54001  0.23593  1.0000
  C   C47       1.0  0.13451  0.53573  0.31563  1.0000
  C   C48       1.0  0.12393  0.53689  0.23488  1.0000
  C   C49       1.0  0.15481  0.53392  0.31452  1.0000
  C   C50       1.0  0.17278  0.54674  0.25307  1.0000
  C   C51       1.0  0.19293  0.54536  0.25313  1.0000
  C   C52       1.0  0.19599  0.53128  0.31516  1.0000
  H   H1        1.0  0.20558  0.55506  0.20813  1.0000
  H   H2        1.0  0.17163  0.55772  0.20860  1.0000
  H   H3        1.0  0.13022  0.53568  0.17396  1.0000
  H   H4        1.0  0.09809  0.54151  0.17624  1.0000
  H   H5        1.0  0.05727  0.49938  0.31554  1.0000
  H   H6        1.0  0.01382  0.47755  0.31595  1.0000
  H   H7        1.0  0.03539  0.54585  0.32202  1.0000
  H   H8        1.0  0.03531  0.58074  0.32209  1.0000
  H   H9        1.0  0.12262  0.58832  0.32283  1.0000
  H   H10       1.0  0.12254  0.62582  0.32403  1.0000
  H   H11       1.0  0.10168  0.64760  0.18079  1.0000
  H   H12       1.0  0.13390  0.68543  0.18411  1.0000
  H   H13       1.0  0.05688  0.64904  0.31616  1.0000
  H   H14       1.0  0.01343  0.62722  0.31555  1.0000
  H   H15       1.0  0.94817  0.50078  0.32429  1.0000
  H   H16       1.0  0.94809  0.53829  0.32315  1.0000
  H   H17       1.0  0.97230  0.58491  0.17612  1.0000
  H   H18       1.0  0.94037  0.59105  0.17387  1.0000
  H   H19       1.0  0.89901  0.56948  0.20967  1.0000
  H   H20       1.0  0.86538  0.57271  0.20914  1.0000
  H   H21       1.0  0.96864  0.47929  0.18067  1.0000
  H   H22       1.0  0.93623  0.44159  0.18402  1.0000
  H   H23       1.0  0.88907  0.36435  0.21365  1.0000
  H   H24       1.0  0.92332  0.40067  0.21101  1.0000
  H   H25       1.0  0.14635  0.72620  0.21221  1.0000
  H   H26       1.0  0.18028  0.76279  0.21483  1.0000
  N   N5        1.0  0.85559  0.35040  0.33676  1.0000
  N   N6        1.0  0.21555  0.53086  0.31116  1.0000
  N   N7        1.0  0.21411  0.77692  0.33696  1.0000
  N   N8        1.0  0.85615  0.59750  0.31106  1.0000
  C   C53       1.0  0.59319  0.63452  0.31886  1.0000
  C   C54       1.0  0.60507  0.62275  0.31912  1.0000
  C   C55       1.0  0.58922  0.59933  0.32101  1.0000
  N   N9        1.0  0.56840  0.59782  0.32178  1.0000
  C   C56       1.0  0.56980  0.61858  0.32050  1.0000
  C   C57       1.0  0.55198  0.62407  0.32107  1.0000
  C   C58       1.0  0.52822  0.60769  0.32207  1.0000
  N   N10       1.0  0.51809  0.58460  0.32137  1.0000
  C   C59       1.0  0.49500  0.57440  0.32254  1.0000
  C   C60       1.0  0.49001  0.59214  0.32426  1.0000
  C   C61       1.0  0.51042  0.61260  0.32366  1.0000
  C   C62       1.0  0.47869  0.55061  0.32203  1.0000
  C   C63       1.0  0.48429  0.53288  0.32115  1.0000
  N   N11       1.0  0.50511  0.53439  0.32183  1.0000
  C   C64       1.0  0.50371  0.51362  0.32048  1.0000
  C   C65       1.0  0.48032  0.49769  0.31880  1.0000
  C   C66       1.0  0.46844  0.50947  0.31918  1.0000
  C   C67       1.0  0.52152  0.50814  0.32103  1.0000
  C   C68       1.0  0.54529  0.52452  0.32205  1.0000
  N   N12       1.0  0.55541  0.54760  0.32121  1.0000
  C   C69       1.0  0.57850  0.55780  0.32241  1.0000
  C   C70       1.0  0.58349  0.54005  0.32434  1.0000
  C   C71       1.0  0.56308  0.51960  0.32381  1.0000
  C   C72       1.0  0.59482  0.58159  0.32179  1.0000
  C   C73       1.0  0.61842  0.58783  0.32221  1.0000
  C   C74       1.0  0.66372  0.59424  0.32610  1.0000
  C   C75       1.0  0.65157  0.59045  0.24419  1.0000
  C   C76       1.0  0.62929  0.58726  0.24215  1.0000
  C   C77       1.0  0.68584  0.59606  0.32847  1.0000
  C   C78       1.0  0.70252  0.60833  0.26174  1.0000
  C   C79       1.0  0.72401  0.60961  0.26294  1.0000
  C   C80       1.0  0.72958  0.59852  0.33091  1.0000
  C   C81       1.0  0.51537  0.48458  0.32000  1.0000
  C   C82       1.0  0.50876  0.43922  0.31767  1.0000
  C   C83       1.0  0.51017  0.45103  0.23688  1.0000
  C   C84       1.0  0.51348  0.47335  0.23787  1.0000
  C   C85       1.0  0.50664  0.41698  0.31667  1.0000
  C   C86       1.0  0.50331  0.37285  0.31728  1.0000
  C   C87       1.0  0.51767  0.38995  0.25583  1.0000
  C   C88       1.0  0.51941  0.41164  0.25581  1.0000
  C   C89       1.0  0.45509  0.54435  0.32256  1.0000
  C   C90       1.0  0.44403  0.54469  0.24241  1.0000
  C   C91       1.0  0.42168  0.54131  0.24444  1.0000
  C   C92       1.0  0.40965  0.53755  0.32642  1.0000
  C   C93       1.0  0.38740  0.53543  0.32870  1.0000
  C   C94       1.0  0.34335  0.53227  0.33105  1.0000
  C   C95       1.0  0.34900  0.52120  0.26371  1.0000
  C   C96       1.0  0.37064  0.52281  0.26256  1.0000
  C   C97       1.0  0.55812  0.64762  0.32010  1.0000
  C   C98       1.0  0.56007  0.65897  0.23797  1.0000
  C   C99       1.0  0.56433  0.69283  0.31771  1.0000
  C   C100      1.0  0.56319  0.68122  0.23695  1.0000
  C   C101      1.0  0.56613  0.71495  0.31664  1.0000
  C   C102      1.0  0.55332  0.72018  0.25514  1.0000
  C   C103      1.0  0.55470  0.74171  0.25522  1.0000
  C   C104      1.0  0.56877  0.75876  0.31730  1.0000
  H   H27       1.0  0.54501  0.74472  0.21019  1.0000
  H   H28       1.0  0.54236  0.70812  0.21063  1.0000
  H   H29       1.0  0.56441  0.68880  0.17604  1.0000
  H   H30       1.0  0.55859  0.65085  0.17826  1.0000
  H   H31       1.0  0.60068  0.65195  0.31765  1.0000
  H   H32       1.0  0.62250  0.63031  0.31794  1.0000
  H   H33       1.0  0.55420  0.58358  0.32373  1.0000
  H   H34       1.0  0.51931  0.54862  0.32399  1.0000
  H   H35       1.0  0.51173  0.62835  0.32459  1.0000
  H   H36       1.0  0.47423  0.59076  0.32569  1.0000
  H   H37       1.0  0.45250  0.54825  0.18236  1.0000
  H   H38       1.0  0.41466  0.54263  0.18532  1.0000
  H   H39       1.0  0.45101  0.50190  0.31805  1.0000
  H   H40       1.0  0.47282  0.48026  0.31755  1.0000
  H   H41       1.0  0.59927  0.54142  0.32591  1.0000
  H   H42       1.0  0.56176  0.50384  0.32491  1.0000
  H   H43       1.0  0.51511  0.48159  0.17816  1.0000
  H   H44       1.0  0.50897  0.44352  0.17597  1.0000
  H   H45       1.0  0.53055  0.42370  0.21173  1.0000
  H   H46       1.0  0.52732  0.38684  0.21123  1.0000
  H   H47       1.0  0.62071  0.58362  0.18221  1.0000
  H   H48       1.0  0.65841  0.58892  0.18520  1.0000
  H   H49       1.0  0.73565  0.61894  0.21425  1.0000
  H   H50       1.0  0.69933  0.61687  0.21203  1.0000
  H   H51       1.0  0.37389  0.51429  0.21329  1.0000
  H   H52       1.0  0.33731  0.51163  0.21548  1.0000
  N   N13       1.0  0.74965  0.59921  0.33699  1.0000
  N   N14       1.0  0.56919  0.77875  0.31329  1.0000
  N   N15       1.0  0.32313  0.53122  0.33717  1.0000
  N   N16       1.0  0.50253  0.35270  0.31320  1.0000
  C   C105      1.0  0.46553  0.05271  0.31998  1.0000
  C   C106      1.0  0.47730  0.07636  0.32035  1.0000
  C   C107      1.0  0.50072  0.08394  0.32238  1.0000
  N   N17       1.0  0.50223  0.06463  0.32312  1.0000
  C   C108      1.0  0.48147  0.04526  0.32170  1.0000
  C   C109      1.0  0.47599  0.02196  0.32224  1.0000
  C   C110      1.0  0.49237  0.01458  0.32336  1.0000
  N   N18       1.0  0.51546  0.02754  0.32272  1.0000
  C   C111      1.0  0.52566  0.01465  0.32399  1.0000
  C   C112      1.0  0.50792  0.99191  0.32573  1.0000
  C   C113      1.0  0.48747  0.99187  0.32499  1.0000
  C   C114      1.0  0.54945  0.02214  0.32352  1.0000
  C   C115      1.0  0.56718  0.04547  0.32254  1.0000
  N   N19       1.0  0.56567  0.06478  0.32315  1.0000
  C   C116      1.0  0.58643  0.08414  0.32170  1.0000
  C   C117      1.0  0.60237  0.07669  0.31999  1.0000
  C   C118      1.0  0.59060  0.05304  0.32049  1.0000
  C   C119      1.0  0.59191  0.10744  0.32215  1.0000
  C   C120      1.0  0.57553  0.11482  0.32326  1.0000
  N   N20       1.0  0.55245  0.10186  0.32252  1.0000
  C   C121      1.0  0.54224  0.11475  0.32382  1.0000
  C   C122      1.0  0.55999  0.13748  0.32573  1.0000
  C   C123      1.0  0.58045  0.13753  0.32506  1.0000
  C   C124      1.0  0.51845  0.10727  0.32326  1.0000
  C   C125      1.0  0.51221  0.12462  0.32373  1.0000
  C   C126      1.0  0.50580  0.16351  0.32783  1.0000
  C   C127      1.0  0.50957  0.15526  0.24587  1.0000
  C   C128      1.0  0.51276  0.13617  0.24372  1.0000
  C   C129      1.0  0.50399  0.18382  0.33029  1.0000
  C   C130      1.0  0.49169  0.18831  0.26367  1.0000
  C   C131      1.0  0.49042  0.20852  0.26495  1.0000
  C   C132      1.0  0.50155  0.22510  0.33284  1.0000
  C   C133      1.0  0.61547  0.12485  0.32088  1.0000
  C   C134      1.0  0.66082  0.16359  0.31798  1.0000
  C   C135      1.0  0.64895  0.15325  0.23733  1.0000
  C   C136      1.0  0.62663  0.13424  0.23859  1.0000
  C   C137      1.0  0.68307  0.18372  0.31668  1.0000
  C   C138      1.0  0.72720  0.22451  0.31671  1.0000
  C   C139      1.0  0.71005  0.22182  0.25546  1.0000
  C   C140      1.0  0.68836  0.20186  0.25570  1.0000
  C   C141      1.0  0.55572  0.00480  0.32418  1.0000
  C   C142      1.0  0.55539  0.99349  0.24405  1.0000
  C   C143      1.0  0.55878  0.97453  0.24616  1.0000
  C   C144      1.0  0.56252  0.96615  0.32818  1.0000
  C   C145      1.0  0.56462  0.94601  0.33053  1.0000
  C   C146      1.0  0.56779  0.90512  0.33304  1.0000
  C   C147      1.0  0.57886  0.92192  0.26567  1.0000
  C   C148      1.0  0.57724  0.94194  0.26442  1.0000
  C   C149      1.0  0.45244  0.00454  0.32104  1.0000
  C   C150      1.0  0.44116  0.99528  0.23875  1.0000
  C   C151      1.0  0.40723  0.96553  0.31805  1.0000
  C   C152      1.0  0.41892  0.97615  0.23745  1.0000
  C   C153      1.0  0.38512  0.94523  0.31669  1.0000
  C   C154      1.0  0.37994  0.92729  0.25514  1.0000
  C   C155      1.0  0.35842  0.90713  0.25495  1.0000
  C   C156      1.0  0.34130  0.90405  0.31675  1.0000
  H   H53       1.0  0.35543  0.89451  0.20986  1.0000
  H   H54       1.0  0.39204  0.92845  0.21081  1.0000
  H   H55       1.0  0.41139  0.96988  0.17644  1.0000
  H   H56       1.0  0.44934  0.00201  0.17914  1.0000
  H   H57       1.0  0.44810  0.04277  0.31868  1.0000
  H   H58       1.0  0.46973  0.08623  0.31916  1.0000
  H   H59       1.0  0.51647  0.06466  0.32523  1.0000
  H   H60       1.0  0.55143  0.06474  0.32535  1.0000
  H   H61       1.0  0.47171  0.97742  0.32593  1.0000
  H   H62       1.0  0.50930  0.97751  0.32721  1.0000
  H   H63       1.0  0.55181  0.99845  0.18399  1.0000
  H   H64       1.0  0.55743  0.96623  0.18708  1.0000
  H   H65       1.0  0.59817  0.04318  0.31939  1.0000
  H   H66       1.0  0.61979  0.08663  0.31867  1.0000
  H   H67       1.0  0.55862  0.15189  0.32736  1.0000
  H   H68       1.0  0.59620  0.15197  0.32615  1.0000
  H   H69       1.0  0.61835  0.12767  0.17899  1.0000
  H   H70       1.0  0.65642  0.15960  0.17633  1.0000
  H   H71       1.0  0.67625  0.20098  0.21181  1.0000
  H   H72       1.0  0.71312  0.23461  0.21081  1.0000
  H   H73       1.0  0.51639  0.13132  0.18375  1.0000
  H   H74       1.0  0.51109  0.16372  0.18690  1.0000
  H   H75       1.0  0.48108  0.21090  0.21632  1.0000
  H   H76       1.0  0.48314  0.17665  0.21398  1.0000
  H   H77       1.0  0.58578  0.95377  0.21516  1.0000
  H   H78       1.0  0.58843  0.91984  0.21747  1.0000
  N   N21       1.0  0.50085  0.24447  0.33901  1.0000
  N   N22       1.0  0.32132  0.88450  0.31248  1.0000
  N   N23       1.0  0.56883  0.88593  0.33921  1.0000
  N   N24       1.0  0.74734  0.24388  0.31237  1.0000
  N   N25       1.0  0.25316  0.52723  0.26195  1.0000
  C   C157      1.0  0.27274  0.52797  0.23529  1.0000
  C   C158      1.0  0.28774  0.52761  0.30077  1.0000
  H   H79       1.0  0.27625  0.52873  0.16820  1.0000
  C   C159      1.0  0.30786  0.52801  0.27799  1.0000
  H   H80       1.0  0.31069  0.52618  0.21383  1.0000
  N   N26       1.0  0.57280  0.82004  0.26408  1.0000
  C   C160      1.0  0.57207  0.83892  0.23740  1.0000
  C   C161      1.0  0.57243  0.85420  0.30286  1.0000
  H   H81       1.0  0.57129  0.84174  0.17030  1.0000
  C   C162      1.0  0.57203  0.87394  0.28004  1.0000
  H   H82       1.0  0.57386  0.87868  0.21588  1.0000
  N   N27       1.0  0.28005  0.84691  0.26268  1.0000
  C   C163      1.0  0.26119  0.82735  0.23574  1.0000
  C   C164      1.0  0.24586  0.81232  0.30102  1.0000
  H   H83       1.0  0.25842  0.82388  0.16862  1.0000
  C   C165      1.0  0.22613  0.79222  0.27794  1.0000
  H   H84       1.0  0.22144  0.78942  0.21374  1.0000
  N   N28       1.0  0.81886  0.60180  0.26170  1.0000
  C   C166      1.0  0.79940  0.60138  0.23504  1.0000
  C   C167      1.0  0.78468  0.60212  0.30049  1.0000
  H   H85       1.0  0.79579  0.60058  0.16797  1.0000
  C   C168      1.0  0.76471  0.60206  0.27769  1.0000
  H   H86       1.0  0.76179  0.60382  0.21346  1.0000
  N   N29       1.0  0.49825  0.31119  0.26381  1.0000
  C   C169      1.0  0.49866  0.29218  0.23713  1.0000
  C   C170      1.0  0.49794  0.27664  0.30257  1.0000
  H   H87       1.0  0.49945  0.28945  0.17006  1.0000
  C   C171      1.0  0.49800  0.25676  0.27974  1.0000
  H   H88       1.0  0.49624  0.25216  0.21550  1.0000
  N   N30       1.0  0.78882  0.28114  0.26242  1.0000
  C   C172      1.0  0.80781  0.30058  0.23549  1.0000
  C   C173      1.0  0.82340  0.31534  0.30073  1.0000
  H   H89       1.0  0.81049  0.30416  0.16838  1.0000
  C   C174      1.0  0.84327  0.33531  0.27764  1.0000
  H   H90       1.0  0.84781  0.33820  0.21334  1.0000
  C   C175      1.0  0.96772  0.46959  0.40248  1.0000
  C   C176      1.0  0.94866  0.44729  0.40439  1.0000
  C   C177      1.0  0.87948  0.38686  0.39776  1.0000
  C   C178      1.0  0.89965  0.40837  0.39604  1.0000
  C   C179      1.0  0.96537  0.58647  0.39892  1.0000
  C   C180      1.0  0.94636  0.58979  0.39759  1.0000
  C   C181      1.0  0.91368  0.60806  0.37517  1.0000
  C   C182      1.0  0.89371  0.60977  0.37538  1.0000
  C   C183      1.0  0.12204  0.67923  0.40482  1.0000
  C   C184      1.0  0.10309  0.65687  0.40293  1.0000
  C   C185      1.0  0.17083  0.71856  0.39565  1.0000
  C   C186      1.0  0.19081  0.74022  0.39739  1.0000
  C   C187      1.0  0.10561  0.54039  0.39903  1.0000
  C   C188      1.0  0.12473  0.53725  0.39767  1.0000
  C   C189      1.0  0.17803  0.51819  0.37601  1.0000
  C   C190      1.0  0.15787  0.51956  0.37579  1.0000
  H   H91       1.0  0.17935  0.50736  0.42060  1.0000
  H   H92       1.0  0.14522  0.50959  0.42027  1.0000
  H   H93       1.0  0.13211  0.53716  0.45768  1.0000
  H   H94       1.0  0.09963  0.54238  0.45948  1.0000
  H   H95       1.0  0.09543  0.64911  0.46215  1.0000
  H   H96       1.0  0.12722  0.68723  0.46565  1.0000
  H   H97       1.0  0.97147  0.58453  0.45940  1.0000
  H   H98       1.0  0.93919  0.59008  0.45765  1.0000
  H   H99       1.0  0.89268  0.62080  0.41947  1.0000
  H   H100      1.0  0.92650  0.61799  0.41920  1.0000
  H   H101      1.0  0.90184  0.41995  0.44477  1.0000
  H   H102      1.0  0.86790  0.38337  0.44817  1.0000
  H   H103      1.0  0.94356  0.43920  0.46518  1.0000
  H   H104      1.0  0.97554  0.47722  0.46166  1.0000
  H   H105      1.0  0.16894  0.70694  0.44398  1.0000
  H   H106      1.0  0.20256  0.74377  0.44739  1.0000
  C   C191      1.0  0.63049  0.59206  0.40401  1.0000
  C   C192      1.0  0.65279  0.59528  0.40572  1.0000
  C   C193      1.0  0.71323  0.58657  0.39833  1.0000
  C   C194      1.0  0.69171  0.58522  0.39682  1.0000
  C   C195      1.0  0.51362  0.47287  0.40097  1.0000
  C   C196      1.0  0.51028  0.45054  0.39968  1.0000
  C   C197      1.0  0.49200  0.39960  0.37734  1.0000
  C   C198      1.0  0.49029  0.37792  0.37756  1.0000
  C   C199      1.0  0.42079  0.53678  0.40617  1.0000
  C   C200      1.0  0.44316  0.54020  0.40449  1.0000
  C   C201      1.0  0.38145  0.54623  0.39647  1.0000
  C   C202      1.0  0.35979  0.54455  0.39793  1.0000
  C   C203      1.0  0.55965  0.65916  0.40106  1.0000
  C   C204      1.0  0.56279  0.68142  0.39974  1.0000
  C   C205      1.0  0.58185  0.75381  0.37819  1.0000
  C   C206      1.0  0.58048  0.73228  0.37797  1.0000
  H   H107      1.0  0.59266  0.76590  0.42284  1.0000
  H   H108      1.0  0.59044  0.72953  0.42247  1.0000
  H   H109      1.0  0.56285  0.68880  0.45975  1.0000
  H   H110      1.0  0.55764  0.65110  0.46150  1.0000
  H   H111      1.0  0.45090  0.54026  0.46379  1.0000
  H   H112      1.0  0.41277  0.53391  0.46696  1.0000
  H   H113      1.0  0.51553  0.48083  0.46144  1.0000
  H   H114      1.0  0.50999  0.44300  0.45975  1.0000
  H   H115      1.0  0.47926  0.36582  0.42167  1.0000
  H   H116      1.0  0.48207  0.40244  0.42137  1.0000
  H   H117      1.0  0.68016  0.57576  0.44561  1.0000
  H   H118      1.0  0.71674  0.57839  0.44861  1.0000
  H   H119      1.0  0.66090  0.59819  0.46643  1.0000
  H   H120      1.0  0.62288  0.59214  0.46327  1.0000
  H   H121      1.0  0.39306  0.55593  0.44480  1.0000
  H   H122      1.0  0.35622  0.55272  0.44777  1.0000
  C   C207      1.0  0.50800  0.13236  0.40560  1.0000
  C   C208      1.0  0.50478  0.15143  0.40740  1.0000
  C   C209      1.0  0.51351  0.22061  0.40021  1.0000
  C   C210      1.0  0.51484  0.20044  0.39864  1.0000
  C   C211      1.0  0.62724  0.13472  0.40171  1.0000
  C   C212      1.0  0.64958  0.15372  0.40013  1.0000
  C   C213      1.0  0.70049  0.18640  0.37715  1.0000
  C   C214      1.0  0.72217  0.20637  0.37707  1.0000
  C   C215      1.0  0.56327  0.97797  0.40790  1.0000
  C   C216      1.0  0.55985  0.99691  0.40613  1.0000
  C   C217      1.0  0.55382  0.92918  0.39833  1.0000
  C   C218      1.0  0.55550  0.90920  0.39988  1.0000
  C   C219      1.0  0.44083  0.99439  0.40184  1.0000
  C   C220      1.0  0.41857  0.97527  0.40023  1.0000
  C   C221      1.0  0.34620  0.92198  0.37769  1.0000
  C   C222      1.0  0.36773  0.94214  0.37774  1.0000
  H   H123      1.0  0.33407  0.92064  0.42214  1.0000
  H   H124      1.0  0.37044  0.95477  0.42230  1.0000
  H   H125      1.0  0.41114  0.96786  0.46015  1.0000
  H   H126      1.0  0.44884  0.00035  0.46238  1.0000
  H   H127      1.0  0.55979  0.00454  0.46540  1.0000
  H   H128      1.0  0.56614  0.97275  0.46870  1.0000
  H   H129      1.0  0.61932  0.12865  0.46228  1.0000
  H   H130      1.0  0.65716  0.16094  0.46010  1.0000
  H   H131      1.0  0.73431  0.20742  0.42105  1.0000
  H   H132      1.0  0.69769  0.17360  0.42124  1.0000
  H   H133      1.0  0.52433  0.19828  0.44734  1.0000
  H   H134      1.0  0.52171  0.23223  0.45046  1.0000
  H   H135      1.0  0.50191  0.15657  0.46817  1.0000
  H   H136      1.0  0.50795  0.12460  0.46484  1.0000
  H   H137      1.0  0.54412  0.93104  0.44663  1.0000
  H   H138      1.0  0.54732  0.89741  0.44973  1.0000
  C   C223      1.0  0.24673  0.52615  0.34935  1.0000
  N   N31       1.0  0.28137  0.52649  0.38813  1.0000
  C   C224      1.0  0.26179  0.52572  0.41537  1.0000
  C   C225      1.0  0.25830  0.52476  0.50162  1.0000
  N   N32       1.0  0.25519  0.52389  0.57769  1.0000
  C   C226      1.0  0.22602  0.52504  0.36867  1.0000
  H   H139      1.0  0.21934  0.52002  0.42953  1.0000
  C   C227      1.0  0.57389  0.81459  0.35148  1.0000
  N   N33       1.0  0.57356  0.84884  0.39023  1.0000
  C   C228      1.0  0.57433  0.83000  0.41748  1.0000
  C   C229      1.0  0.57531  0.82738  0.50374  1.0000
  N   N34       1.0  0.57618  0.82504  0.57980  1.0000
  C   C230      1.0  0.57499  0.79495  0.37083  1.0000
  H   H140      1.0  0.58000  0.79322  0.43170  1.0000
  C   C231      1.0  0.28543  0.85330  0.35015  1.0000
  N   N35       1.0  0.25115  0.81865  0.38845  1.0000
  C   C232      1.0  0.26998  0.83821  0.41594  1.0000
  C   C233      1.0  0.27253  0.84166  0.50224  1.0000
  N   N36       1.0  0.27480  0.84474  0.57834  1.0000
  C   C234      1.0  0.30505  0.87401  0.36975  1.0000
  H   H141      1.0  0.30672  0.88066  0.43063  1.0000
  C   C235      1.0  0.82542  0.60289  0.34905  1.0000
  N   N37       1.0  0.79119  0.60324  0.38782  1.0000
  C   C236      1.0  0.81065  0.60369  0.41504  1.0000
  C   C237      1.0  0.81429  0.60472  0.50127  1.0000
  N   N38       1.0  0.81754  0.60564  0.57730  1.0000
  C   C238      1.0  0.84601  0.60365  0.36836  1.0000
  H   H142      1.0  0.85283  0.60868  0.42904  1.0000
  C   C239      1.0  0.49716  0.31655  0.35118  1.0000
  N   N39       1.0  0.49681  0.28191  0.38990  1.0000
  C   C240      1.0  0.49637  0.30088  0.41715  1.0000
  C   C241      1.0  0.49534  0.30338  0.50338  1.0000
  N   N40       1.0  0.49442  0.30561  0.57941  1.0000
  C   C242      1.0  0.49639  0.33634  0.37050  1.0000
  H   H143      1.0  0.49138  0.33806  0.43121  1.0000
  C   C243      1.0  0.78353  0.27463  0.34986  1.0000
  N   N41       1.0  0.81820  0.30890  0.38813  1.0000
  C   C244      1.0  0.79924  0.28945  0.41563  1.0000
  C   C245      1.0  0.79681  0.28586  0.50189  1.0000
  N   N42       1.0  0.79464  0.28266  0.57796  1.0000
  C   C246      1.0  0.76375  0.25406  0.36945  1.0000
  H   H144      1.0  0.76209  0.24727  0.43016  1.0000
