data_image0
_chemical_formula_structural       CNCHNHCNCHNHCNCHNHCNCHNHCNCHNHCNCHNHC4HC6HO2C4HC6HO2C4HC6HO2C4HC6HO2C4HC6HO2C4HC6HO2C4HC6HO2C4HC6HO2C4HC6HO2C4HC6HO2C4HC6HO2C4HC6HO2C6H3C6H3C6H3C6H3C6H3C6H3C6H3C6H3C6H3C6H3C6H3C6H3C4HC6HO2C4HC6HO2C4HC6HO2C4HC6HO2C4HC6HO2C4HC6HO2CNCHNHCNCHNHCNCHNHCNCHNHCNCHNHCNCHNHCNCHNHCNCHNHCNCHNHCNCHNHCNCHNHCNCHNH
_chemical_formula_sum              "C288 N36 H108 O36"
_cell_length_a       56.2701
_cell_length_b       56.2701
_cell_length_c       14.8493
_cell_angle_alpha    90
_cell_angle_beta     90
_cell_angle_gamma    120

_space_group_name_H-M_alt    "P 1"
_space_group_IT_number       1

loop_
  _space_group_symop_operation_xyz
  'x, y, z'

loop_
  _atom_site_type_symbol
  _atom_site_label
  _atom_site_symmetry_multiplicity
  _atom_site_fract_x
  _atom_site_fract_y
  _atom_site_fract_z
  _atom_site_occupancy
  C   C1        1.0  0.23071  0.45127  0.26749  1.0000
  N   N1        1.0  0.21677  0.42339  0.27163  1.0000
  C   C2        1.0  0.17380  0.33746  0.26767  1.0000
  H   H1        1.0  0.23535  0.46056  0.20577  1.0000
  N   N2        1.0  0.18774  0.36534  0.27172  1.0000
  H   H2        1.0  0.16915  0.32816  0.20598  1.0000
  C   C3        1.0  0.55558  0.77610  0.26750  1.0000
  N   N3        1.0  0.58345  0.79004  0.27163  1.0000
  C   C4        1.0  0.66938  0.83302  0.26768  1.0000
  H   H3        1.0  0.54629  0.77145  0.20577  1.0000
  N   N4        1.0  0.64150  0.81908  0.27173  1.0000
  H   H4        1.0  0.67868  0.83766  0.20598  1.0000
  C   C5        1.0  0.23072  0.77615  0.26753  1.0000
  N   N5        1.0  0.21678  0.79009  0.27166  1.0000
  C   C6        1.0  0.17381  0.83305  0.26770  1.0000
  H   H5        1.0  0.23536  0.77150  0.20581  1.0000
  N   N6        1.0  0.18775  0.81911  0.27175  1.0000
  H   H6        1.0  0.16917  0.83770  0.20600  1.0000
  C   C7        1.0  0.78065  0.55108  0.26751  1.0000
  N   N7        1.0  0.79458  0.57895  0.27165  1.0000
  C   C8        1.0  0.83754  0.66488  0.26769  1.0000
  H   H7        1.0  0.77601  0.54179  0.20579  1.0000
  N   N8        1.0  0.82360  0.63701  0.27174  1.0000
  H   H8        1.0  0.84219  0.67418  0.20598  1.0000
  C   C9        1.0  0.45577  0.22626  0.26752  1.0000
  N   N9        1.0  0.42790  0.21232  0.27165  1.0000
  C   C10       1.0  0.34197  0.16936  0.26768  1.0000
  H   H9        1.0  0.46506  0.23093  0.20580  1.0000
  N   N10       1.0  0.36984  0.18330  0.27173  1.0000
  H   H10       1.0  0.33266  0.16473  0.20598  1.0000
  C   C11       1.0  0.78058  0.22620  0.26746  1.0000
  N   N11       1.0  0.79452  0.21226  0.27159  1.0000
  C   C12       1.0  0.83749  0.16930  0.26765  1.0000
  H   H11       1.0  0.77593  0.23083  0.20574  1.0000
  N   N12       1.0  0.82355  0.18324  0.27170  1.0000
  H   H12       1.0  0.84213  0.16464  0.20595  1.0000
  C   C13       1.0  0.16599  0.23416  0.34018  1.0000
  C   C14       1.0  0.19516  0.20523  0.33733  1.0000
  C   C15       1.0  0.18695  0.21172  0.25457  1.0000
  C   C16       1.0  0.17231  0.22618  0.25746  1.0000
  H   H13       1.0  0.16618  0.23106  0.19878  1.0000
  C   C17       1.0  0.20972  0.19068  0.33732  1.0000
  C   C18       1.0  0.23866  0.16152  0.34016  1.0000
  C   C19       1.0  0.23067  0.16784  0.25745  1.0000
  C   C20       1.0  0.21621  0.18247  0.25457  1.0000
  C   C21       1.0  0.20809  0.18913  0.17261  1.0000
  C   C22       1.0  0.19362  0.20360  0.17262  1.0000
  H   H14       1.0  0.23556  0.16170  0.19877  1.0000
  O   O1        1.0  0.21403  0.18180  0.09249  1.0000
  O   O2        1.0  0.18628  0.20955  0.09249  1.0000
  C   C23       1.0  0.77268  0.92852  0.34019  1.0000
  C   C24       1.0  0.80161  0.98662  0.33734  1.0000
  C   C25       1.0  0.79512  0.97192  0.25458  1.0000
  C   C26       1.0  0.78066  0.94282  0.25747  1.0000
  H   H15       1.0  0.77577  0.93181  0.19880  1.0000
  C   C27       1.0  0.81616  0.01573  0.33733  1.0000
  C   C28       1.0  0.84532  0.07383  0.34018  1.0000
  C   C29       1.0  0.83901  0.05953  0.25747  1.0000
  C   C30       1.0  0.82437  0.03043  0.25458  1.0000
  C   C31       1.0  0.81771  0.01564  0.17263  1.0000
  C   C32       1.0  0.80324  0.98671  0.17263  1.0000
  H   H16       1.0  0.84514  0.07054  0.19878  1.0000
  O   O3        1.0  0.82504  0.02893  0.09250  1.0000
  O   O4        1.0  0.79729  0.97342  0.09250  1.0000
  C   C33       1.0  0.07832  0.84085  0.34018  1.0000
  C   C34       1.0  0.02022  0.81168  0.33733  1.0000
  C   C35       1.0  0.03492  0.81989  0.25458  1.0000
  C   C36       1.0  0.06401  0.83453  0.25747  1.0000
  H   H17       1.0  0.07503  0.84066  0.19878  1.0000
  C   C37       1.0  0.99111  0.79712  0.33733  1.0000
  C   C38       1.0  0.93301  0.76819  0.34017  1.0000
  C   C39       1.0  0.94731  0.77617  0.25745  1.0000
  C   C40       1.0  0.97640  0.79063  0.25457  1.0000
  C   C41       1.0  0.99120  0.79875  0.17262  1.0000
  C   C42       1.0  0.02013  0.81322  0.17262  1.0000
  H   H18       1.0  0.93630  0.77129  0.19877  1.0000
  O   O5        1.0  0.97791  0.79281  0.09249  1.0000
  O   O6        1.0  0.03342  0.82056  0.09250  1.0000
  C   C43       1.0  0.84532  0.76818  0.34019  1.0000
  C   C44       1.0  0.81616  0.79712  0.33734  1.0000
  C   C45       1.0  0.82437  0.79062  0.25458  1.0000
  C   C46       1.0  0.83901  0.77616  0.25747  1.0000
  H   H19       1.0  0.84514  0.77128  0.19879  1.0000
  C   C47       1.0  0.80161  0.81167  0.33734  1.0000
  C   C48       1.0  0.77268  0.84084  0.34018  1.0000
  C   C49       1.0  0.78066  0.83452  0.25747  1.0000
  C   C50       1.0  0.79512  0.81989  0.25458  1.0000
  C   C51       1.0  0.80324  0.81322  0.17263  1.0000
  C   C52       1.0  0.81771  0.79875  0.17263  1.0000
  H   H20       1.0  0.77578  0.84066  0.19879  1.0000
  O   O7        1.0  0.79730  0.82056  0.09250  1.0000
  O   O8        1.0  0.82505  0.79280  0.09250  1.0000
  C   C53       1.0  0.23866  0.07384  0.34018  1.0000
  C   C54       1.0  0.20972  0.01574  0.33733  1.0000
  C   C55       1.0  0.21622  0.03044  0.25458  1.0000
  C   C56       1.0  0.23068  0.05954  0.25747  1.0000
  H   H21       1.0  0.23556  0.07055  0.19878  1.0000
  C   C57       1.0  0.19516  0.98663  0.33733  1.0000
  C   C58       1.0  0.16599  0.92853  0.34018  1.0000
  C   C59       1.0  0.17232  0.94283  0.25746  1.0000
  C   C60       1.0  0.18695  0.97193  0.25458  1.0000
  C   C61       1.0  0.19362  0.98672  0.17263  1.0000
  C   C62       1.0  0.20809  0.01565  0.17263  1.0000
  H   H22       1.0  0.16618  0.93182  0.19878  1.0000
  O   O9        1.0  0.18628  0.97343  0.09250  1.0000
  O   O10       1.0  0.21404  0.02894  0.09250  1.0000
  C   C63       1.0  0.93301  0.16151  0.34018  1.0000
  C   C64       1.0  0.99111  0.19068  0.33733  1.0000
  C   C65       1.0  0.97640  0.18247  0.25458  1.0000
  C   C66       1.0  0.94731  0.16783  0.25747  1.0000
  H   H23       1.0  0.93629  0.16170  0.19879  1.0000
  C   C67       1.0  0.02021  0.20523  0.33733  1.0000
  C   C68       1.0  0.07831  0.23416  0.34018  1.0000
  C   C69       1.0  0.06401  0.22618  0.25747  1.0000
  C   C70       1.0  0.03492  0.21172  0.25458  1.0000
  C   C71       1.0  0.02013  0.20360  0.17263  1.0000
  C   C72       1.0  0.99119  0.18913  0.17263  1.0000
  H   H24       1.0  0.07502  0.23106  0.19879  1.0000
  O   O11       1.0  0.03341  0.20954  0.09250  1.0000
  O   O12       1.0  0.97791  0.18179  0.09250  1.0000
  C   C73       1.0  0.24014  0.68087  0.34074  1.0000
  C   C74       1.0  0.23361  0.62773  0.33676  1.0000
  C   C75       1.0  0.23529  0.64126  0.25413  1.0000
  C   C76       1.0  0.23851  0.66788  0.25762  1.0000
  H   H25       1.0  0.24214  0.67894  0.19941  1.0000
  C   C77       1.0  0.23360  0.60258  0.33682  1.0000
  C   C78       1.0  0.24014  0.55598  0.34102  1.0000
  C   C79       1.0  0.23852  0.56732  0.25784  1.0000
  C   C80       1.0  0.23529  0.59070  0.25425  1.0000
  C   C81       1.0  0.23585  0.60373  0.17212  1.0000
  C   C82       1.0  0.23585  0.62878  0.17206  1.0000
  H   H26       1.0  0.24212  0.55986  0.19964  1.0000
  O   O13       1.0  0.23785  0.59321  0.09223  1.0000
  O   O14       1.0  0.23784  0.64126  0.09212  1.0000
  C   C83       1.0  0.32599  0.55601  0.34099  1.0000
  C   C84       1.0  0.37910  0.60257  0.33692  1.0000
  C   C85       1.0  0.36553  0.59074  0.25429  1.0000
  C   C86       1.0  0.33891  0.56737  0.25780  1.0000
  H   H27       1.0  0.32786  0.55990  0.19957  1.0000
  C   C87       1.0  0.40425  0.62771  0.33695  1.0000
  C   C88       1.0  0.45084  0.68083  0.34115  1.0000
  C   C89       1.0  0.43952  0.66789  0.25792  1.0000
  C   C90       1.0  0.41611  0.64129  0.25437  1.0000
  C   C91       1.0  0.40306  0.62884  0.17226  1.0000
  C   C92       1.0  0.37800  0.60380  0.17222  1.0000
  H   H28       1.0  0.44694  0.67897  0.19973  1.0000
  O   O15       1.0  0.41357  0.64136  0.09236  1.0000
  O   O16       1.0  0.36549  0.59332  0.09229  1.0000
  C   C93       1.0  0.45086  0.76666  0.34074  1.0000
  C   C94       1.0  0.40426  0.77320  0.33678  1.0000
  C   C95       1.0  0.41611  0.77152  0.25415  1.0000
  C   C96       1.0  0.43950  0.76830  0.25763  1.0000
  H   H29       1.0  0.44694  0.76468  0.19941  1.0000
  C   C97       1.0  0.37912  0.77321  0.33685  1.0000
  C   C98       1.0  0.32598  0.76667  0.34105  1.0000
  C   C99       1.0  0.33894  0.76830  0.25787  1.0000
  C   C100      1.0  0.36556  0.77153  0.25427  1.0000
  C   C101      1.0  0.37802  0.77097  0.17214  1.0000
  C   C102      1.0  0.40307  0.77097  0.17207  1.0000
  H   H30       1.0  0.32788  0.76470  0.19967  1.0000
  O   O17       1.0  0.36551  0.76898  0.09225  1.0000
  O   O18       1.0  0.41356  0.76897  0.09213  1.0000
  C   C103      1.0  0.77113  0.32149  0.34114  1.0000
  C   C104      1.0  0.77769  0.37462  0.33697  1.0000
  C   C105      1.0  0.77595  0.36104  0.25437  1.0000
  C   C106      1.0  0.77269  0.33441  0.25794  1.0000
  H   H31       1.0  0.76911  0.32336  0.19972  1.0000
  C   C107      1.0  0.77771  0.39977  0.33695  1.0000
  C   C108      1.0  0.77117  0.44634  0.34105  1.0000
  C   C109      1.0  0.77279  0.43503  0.25783  1.0000
  C   C110      1.0  0.77598  0.41162  0.25434  1.0000
  C   C111      1.0  0.77538  0.39855  0.17226  1.0000
  C   C112      1.0  0.77537  0.37350  0.17227  1.0000
  H   H32       1.0  0.76913  0.44244  0.19963  1.0000
  O   O19       1.0  0.77337  0.40905  0.09233  1.0000
  O   O20       1.0  0.77332  0.36097  0.09237  1.0000
  C   C113      1.0  0.68536  0.44637  0.34074  1.0000
  C   C114      1.0  0.63222  0.39977  0.33665  1.0000
  C   C115      1.0  0.64575  0.41166  0.25406  1.0000
  C   C116      1.0  0.67236  0.43504  0.25760  1.0000
  H   H33       1.0  0.68342  0.44251  0.19939  1.0000
  C   C117      1.0  0.60707  0.37462  0.33665  1.0000
  C   C118      1.0  0.56050  0.32150  0.34066  1.0000
  C   C119      1.0  0.57181  0.33449  0.25752  1.0000
  C   C120      1.0  0.59519  0.36110  0.25403  1.0000
  C   C121      1.0  0.60821  0.37360  0.17194  1.0000
  C   C122      1.0  0.63326  0.39865  0.17195  1.0000
  H   H34       1.0  0.56434  0.32343  0.19931  1.0000
  O   O21       1.0  0.59769  0.36112  0.09200  1.0000
  O   O22       1.0  0.64575  0.40917  0.09202  1.0000
  C   C123      1.0  0.56050  0.23567  0.34123  1.0000
  C   C124      1.0  0.60708  0.22912  0.33697  1.0000
  C   C125      1.0  0.59523  0.23087  0.25440  1.0000
  C   C126      1.0  0.57186  0.23413  0.25802  1.0000
  H   H35       1.0  0.56439  0.23771  0.19981  1.0000
  C   C127      1.0  0.63221  0.22910  0.33692  1.0000
  C   C128      1.0  0.68531  0.23564  0.34096  1.0000
  C   C129      1.0  0.67238  0.23403  0.25775  1.0000
  C   C130      1.0  0.64578  0.23083  0.25429  1.0000
  C   C131      1.0  0.63332  0.23145  0.17222  1.0000
  C   C132      1.0  0.60827  0.23146  0.17228  1.0000
  H   H36       1.0  0.68346  0.23773  0.19955  1.0000
  O   O23       1.0  0.64582  0.23347  0.09229  1.0000
  O   O24       1.0  0.59779  0.23352  0.09239  1.0000
  C   C133      1.0  0.10752  0.24874  0.34274  1.0000
  C   C134      1.0  0.12231  0.23448  0.34121  1.0000
  C   C135      1.0  0.15136  0.24874  0.34273  1.0000
  C   C136      1.0  0.16562  0.27777  0.34459  1.0000
  C   C137      1.0  0.15134  0.29254  0.34512  1.0000
  C   C138      1.0  0.12230  0.27777  0.34461  1.0000
  H   H37       1.0  0.18665  0.28829  0.34511  1.0000
  H   H38       1.0  0.11179  0.28829  0.34512  1.0000
  H   H39       1.0  0.11180  0.21346  0.33919  1.0000
  C   C139      1.0  0.75811  0.85548  0.34274  1.0000
  C   C140      1.0  0.77236  0.88453  0.34123  1.0000
  C   C141      1.0  0.75811  0.89931  0.34275  1.0000
  C   C142      1.0  0.72907  0.88453  0.34462  1.0000
  C   C143      1.0  0.71430  0.85549  0.34512  1.0000
  C   C144      1.0  0.72907  0.84122  0.34461  1.0000
  H   H40       1.0  0.71855  0.89504  0.34512  1.0000
  H   H41       1.0  0.71855  0.82019  0.34511  1.0000
  H   H42       1.0  0.79339  0.89504  0.33919  1.0000
  C   C145      1.0  0.15136  0.89932  0.34273  1.0000
  C   C146      1.0  0.12231  0.88453  0.34121  1.0000
  C   C147      1.0  0.10753  0.85549  0.34274  1.0000
  C   C148      1.0  0.12230  0.84123  0.34463  1.0000
  C   C149      1.0  0.15135  0.85550  0.34513  1.0000
  C   C150      1.0  0.16562  0.88455  0.34462  1.0000
  H   H43       1.0  0.11179  0.82020  0.34513  1.0000
  H   H44       1.0  0.18665  0.89506  0.34512  1.0000
  H   H45       1.0  0.11180  0.89504  0.33917  1.0000
  C   C151      1.0  0.90380  0.75361  0.34272  1.0000
  C   C152      1.0  0.88901  0.76787  0.34121  1.0000
  C   C153      1.0  0.85996  0.75361  0.34274  1.0000
  C   C154      1.0  0.84570  0.72457  0.34461  1.0000
  C   C155      1.0  0.85998  0.70980  0.34512  1.0000
  C   C156      1.0  0.88902  0.72457  0.34460  1.0000
  H   H46       1.0  0.82467  0.71405  0.34513  1.0000
  H   H47       1.0  0.89954  0.71406  0.34511  1.0000
  H   H48       1.0  0.89952  0.78889  0.33919  1.0000
  C   C157      1.0  0.25323  0.14688  0.34272  1.0000
  C   C158      1.0  0.23897  0.11784  0.34120  1.0000
  C   C159      1.0  0.25323  0.10305  0.34274  1.0000
  C   C160      1.0  0.28227  0.11783  0.34461  1.0000
  C   C161      1.0  0.29704  0.14687  0.34511  1.0000
  C   C162      1.0  0.28227  0.16115  0.34459  1.0000
  H   H49       1.0  0.29279  0.10732  0.34513  1.0000
  H   H50       1.0  0.29279  0.18218  0.34509  1.0000
  H   H51       1.0  0.21796  0.10733  0.33918  1.0000
  C   C163      1.0  0.85996  0.10304  0.34274  1.0000
  C   C164      1.0  0.88901  0.11783  0.34121  1.0000
  C   C165      1.0  0.90379  0.14687  0.34274  1.0000
  C   C166      1.0  0.88902  0.16114  0.34459  1.0000
  C   C167      1.0  0.85997  0.14686  0.34510  1.0000
  C   C168      1.0  0.84570  0.11782  0.34459  1.0000
  H   H52       1.0  0.89953  0.18217  0.34511  1.0000
  H   H53       1.0  0.82467  0.10730  0.34509  1.0000
  H   H54       1.0  0.89952  0.10732  0.33920  1.0000
  C   C169      1.0  0.29692  0.53996  0.34429  1.0000
  C   C170      1.0  0.28210  0.55407  0.34422  1.0000
  C   C171      1.0  0.25316  0.53994  0.34431  1.0000
  C   C172      1.0  0.23880  0.51093  0.34465  1.0000
  C   C173      1.0  0.25318  0.49620  0.34497  1.0000
  C   C174      1.0  0.28229  0.51094  0.34465  1.0000
  H   H55       1.0  0.21778  0.50052  0.34450  1.0000
  H   H56       1.0  0.29291  0.50055  0.34449  1.0000
  H   H57       1.0  0.29264  0.57515  0.34303  1.0000
  C   C175      1.0  0.46690  0.75365  0.34421  1.0000
  C   C176      1.0  0.45277  0.72471  0.34418  1.0000
  C   C177      1.0  0.46689  0.70989  0.34435  1.0000
  C   C178      1.0  0.49590  0.72453  0.34473  1.0000
  C   C179      1.0  0.51064  0.75364  0.34497  1.0000
  C   C180      1.0  0.49591  0.76801  0.34455  1.0000
  H   H58       1.0  0.50630  0.71391  0.34465  1.0000
  H   H59       1.0  0.50631  0.78903  0.34433  1.0000
  H   H60       1.0  0.43169  0.71417  0.34296  1.0000
  C   C181      1.0  0.25316  0.70992  0.34422  1.0000
  C   C182      1.0  0.28210  0.72472  0.34415  1.0000
  C   C183      1.0  0.29692  0.75367  0.34434  1.0000
  C   C184      1.0  0.28228  0.76804  0.34473  1.0000
  C   C185      1.0  0.25317  0.75368  0.34501  1.0000
  C   C186      1.0  0.23880  0.72457  0.34459  1.0000
  H   H61       1.0  0.29290  0.78906  0.34463  1.0000
  H   H62       1.0  0.21778  0.71396  0.34439  1.0000
  H   H63       1.0  0.29264  0.71418  0.34291  1.0000
  C   C187      1.0  0.71441  0.46240  0.34422  1.0000
  C   C188      1.0  0.72922  0.44827  0.34416  1.0000
  C   C189      1.0  0.75816  0.46239  0.34435  1.0000
  C   C190      1.0  0.77253  0.49140  0.34472  1.0000
  C   C191      1.0  0.75817  0.50615  0.34498  1.0000
  C   C192      1.0  0.72906  0.49142  0.34458  1.0000
  H   H64       1.0  0.79355  0.50180  0.34462  1.0000
  H   H65       1.0  0.71845  0.50182  0.34437  1.0000
  H   H66       1.0  0.71868  0.42720  0.34292  1.0000
  C   C193      1.0  0.54445  0.24869  0.34449  1.0000
  C   C194      1.0  0.55857  0.27763  0.34426  1.0000
  C   C195      1.0  0.54445  0.29244  0.34422  1.0000
  C   C196      1.0  0.51544  0.27780  0.34453  1.0000
  C   C197      1.0  0.50070  0.24869  0.34501  1.0000
  C   C198      1.0  0.51544  0.23432  0.34484  1.0000
  H   H67       1.0  0.50504  0.28841  0.34424  1.0000
  H   H68       1.0  0.50504  0.21330  0.34476  1.0000
  H   H69       1.0  0.57965  0.28816  0.34300  1.0000
  C   C199      1.0  0.75813  0.29243  0.34436  1.0000
  C   C200      1.0  0.72918  0.27760  0.34426  1.0000
  C   C201      1.0  0.71438  0.24866  0.34427  1.0000
  C   C202      1.0  0.72903  0.23430  0.34457  1.0000
  C   C203      1.0  0.75814  0.24868  0.34493  1.0000
  C   C204      1.0  0.77250  0.27779  0.34468  1.0000
  H   H70       1.0  0.71842  0.21329  0.34439  1.0000
  H   H71       1.0  0.79352  0.28841  0.34455  1.0000
  H   H72       1.0  0.71864  0.28814  0.34307  1.0000
  C   C205      1.0  0.23859  0.46701  0.34728  1.0000
  C   C206      1.0  0.20955  0.40893  0.35012  1.0000
  C   C207      1.0  0.21690  0.42363  0.43294  1.0000
  C   C208      1.0  0.23145  0.45272  0.43006  1.0000
  H   H73       1.0  0.23696  0.46373  0.48879  1.0000
  C   C209      1.0  0.19499  0.37982  0.35017  1.0000
  C   C210      1.0  0.16595  0.32174  0.34751  1.0000
  C   C211      1.0  0.17311  0.33605  0.43025  1.0000
  C   C212      1.0  0.18765  0.36514  0.43303  1.0000
  C   C213      1.0  0.19506  0.37993  0.51501  1.0000
  C   C214      1.0  0.20952  0.40886  0.51497  1.0000
  H   H74       1.0  0.16761  0.32505  0.48900  1.0000
  O   O25       1.0  0.18842  0.36666  0.59521  1.0000
  O   O26       1.0  0.21618  0.42216  0.59512  1.0000
  C   C215      1.0  0.53984  0.76824  0.34729  1.0000
  C   C216      1.0  0.59791  0.79728  0.35012  1.0000
  C   C217      1.0  0.58321  0.78993  0.43294  1.0000
  C   C218      1.0  0.55412  0.77539  0.43007  1.0000
  H   H75       1.0  0.54311  0.76988  0.48880  1.0000
  C   C219      1.0  0.62702  0.81184  0.35018  1.0000
  C   C220      1.0  0.68510  0.84089  0.34751  1.0000
  C   C221      1.0  0.67079  0.83374  0.43025  1.0000
  C   C222      1.0  0.64170  0.81919  0.43304  1.0000
  C   C223      1.0  0.62691  0.81180  0.51502  1.0000
  C   C224      1.0  0.59798  0.79733  0.51497  1.0000
  H   H76       1.0  0.68179  0.83925  0.48900  1.0000
  O   O27       1.0  0.64019  0.81844  0.59521  1.0000
  O   O28       1.0  0.58469  0.79068  0.59512  1.0000
  C   C225      1.0  0.23858  0.76828  0.34732  1.0000
  C   C226      1.0  0.20954  0.79731  0.35016  1.0000
  C   C227      1.0  0.21689  0.78996  0.43298  1.0000
  C   C228      1.0  0.23143  0.77541  0.43010  1.0000
  H   H77       1.0  0.23694  0.76990  0.48883  1.0000
  C   C229      1.0  0.19499  0.81186  0.35020  1.0000
  C   C230      1.0  0.16595  0.84090  0.34753  1.0000
  C   C231      1.0  0.17309  0.83374  0.43027  1.0000
  C   C232      1.0  0.18764  0.81920  0.43306  1.0000
  C   C233      1.0  0.19503  0.81180  0.51504  1.0000
  C   C234      1.0  0.20950  0.79734  0.51500  1.0000
  H   H78       1.0  0.16759  0.83924  0.48902  1.0000
  O   O29       1.0  0.18838  0.81843  0.59523  1.0000
  O   O30       1.0  0.21614  0.79068  0.59516  1.0000
  C   C235      1.0  0.77277  0.53534  0.34730  1.0000
  C   C236      1.0  0.80180  0.59342  0.35014  1.0000
  C   C237      1.0  0.79444  0.57871  0.43296  1.0000
  C   C238      1.0  0.77990  0.54963  0.43008  1.0000
  H   H79       1.0  0.77439  0.53861  0.48881  1.0000
  C   C239      1.0  0.81635  0.62252  0.35018  1.0000
  C   C240      1.0  0.84538  0.68060  0.34752  1.0000
  C   C241      1.0  0.83822  0.66630  0.43025  1.0000
  C   C242      1.0  0.82368  0.63721  0.43304  1.0000
  C   C243      1.0  0.81628  0.62242  0.51503  1.0000
  C   C244      1.0  0.80182  0.59348  0.51499  1.0000
  H   H80       1.0  0.84371  0.67730  0.48901  1.0000
  O   O31       1.0  0.82290  0.63569  0.59521  1.0000
  O   O32       1.0  0.79516  0.58019  0.59514  1.0000
  C   C245      1.0  0.47151  0.23409  0.34731  1.0000
  C   C246      1.0  0.41343  0.20506  0.35014  1.0000
  C   C247      1.0  0.42813  0.21239  0.43296  1.0000
  C   C248      1.0  0.45722  0.22692  0.43009  1.0000
  H   H81       1.0  0.46823  0.23241  0.48882  1.0000
  C   C249      1.0  0.38432  0.19051  0.35018  1.0000
  C   C250      1.0  0.32624  0.16147  0.34751  1.0000
  C   C251      1.0  0.34055  0.16860  0.43025  1.0000
  C   C252      1.0  0.36964  0.18314  0.43304  1.0000
  C   C253      1.0  0.38443  0.19051  0.51503  1.0000
  C   C254      1.0  0.41336  0.20498  0.51499  1.0000
  H   H82       1.0  0.32954  0.16308  0.48900  1.0000
  O   O33       1.0  0.37115  0.18386  0.59521  1.0000
  O   O34       1.0  0.42665  0.21160  0.59514  1.0000
  C   C255      1.0  0.77274  0.23409  0.34725  1.0000
  C   C256      1.0  0.80177  0.20505  0.35009  1.0000
  C   C257      1.0  0.79444  0.21242  0.43291  1.0000
  C   C258      1.0  0.77990  0.22696  0.43003  1.0000
  H   H83       1.0  0.77440  0.23248  0.48876  1.0000
  C   C259      1.0  0.81633  0.19050  0.35014  1.0000
  C   C260      1.0  0.84537  0.16146  0.34749  1.0000
  C   C261      1.0  0.83823  0.16863  0.43022  1.0000
  C   C262      1.0  0.82369  0.18317  0.43300  1.0000
  C   C263      1.0  0.81630  0.19058  0.51499  1.0000
  C   C264      1.0  0.80184  0.20505  0.51494  1.0000
  H   H84       1.0  0.84375  0.16314  0.48898  1.0000
  O   O35       1.0  0.82296  0.18396  0.59518  1.0000
  O   O36       1.0  0.79521  0.21171  0.59509  1.0000
  C   C265      1.0  0.17481  0.22723  0.41986  1.0000
  N   N13       1.0  0.18873  0.21328  0.41574  1.0000
  C   C266      1.0  0.23172  0.17034  0.41986  1.0000
  H   H85       1.0  0.17080  0.23250  0.48155  1.0000
  N   N14       1.0  0.21777  0.18425  0.41574  1.0000
  H   H86       1.0  0.23699  0.16632  0.48154  1.0000
  C   C267      1.0  0.77961  0.94427  0.41988  1.0000
  N   N15       1.0  0.79357  0.97215  0.41575  1.0000
  C   C268      1.0  0.83651  0.05808  0.41987  1.0000
  H   H87       1.0  0.77434  0.93499  0.48156  1.0000
  N   N16       1.0  0.82259  0.03021  0.41575  1.0000
  H   H88       1.0  0.84053  0.06736  0.48156  1.0000
  C   C269      1.0  0.06256  0.83203  0.41987  1.0000
  N   N17       1.0  0.03469  0.81811  0.41574  1.0000
  C   C270      1.0  0.94876  0.77512  0.41986  1.0000
  H   H89       1.0  0.07185  0.83605  0.48156  1.0000
  N   N18       1.0  0.97663  0.78908  0.41574  1.0000
  H   H90       1.0  0.93948  0.76985  0.48154  1.0000
  C   C271      1.0  0.83651  0.77512  0.41988  1.0000
  N   N19       1.0  0.82259  0.78907  0.41575  1.0000
  C   C272      1.0  0.77961  0.83203  0.41988  1.0000
  H   H91       1.0  0.84052  0.76985  0.48156  1.0000
  N   N20       1.0  0.79357  0.81810  0.41575  1.0000
  H   H92       1.0  0.77435  0.83604  0.48156  1.0000
  C   C273      1.0  0.23173  0.05809  0.41987  1.0000
  N   N21       1.0  0.21777  0.03022  0.41574  1.0000
  C   C274      1.0  0.17481  0.94428  0.41986  1.0000
  H   H93       1.0  0.23699  0.06737  0.48156  1.0000
  N   N22       1.0  0.18874  0.97216  0.41574  1.0000
  H   H94       1.0  0.17080  0.93500  0.48155  1.0000
  C   C275      1.0  0.94876  0.17033  0.41987  1.0000
  N   N23       1.0  0.97663  0.18425  0.41575  1.0000
  C   C276      1.0  0.06256  0.22723  0.41987  1.0000
  H   H95       1.0  0.93947  0.16632  0.48156  1.0000
  N   N24       1.0  0.03469  0.21328  0.41575  1.0000
  H   H96       1.0  0.07184  0.23250  0.48156  1.0000
  C   C277      1.0  0.23760  0.66600  0.42023  1.0000
  N   N25       1.0  0.23479  0.64063  0.41553  1.0000
  C   C278      1.0  0.23764  0.56835  0.42042  1.0000
  H   H97       1.0  0.24040  0.67501  0.48208  1.0000
  N   N26       1.0  0.23479  0.59088  0.41564  1.0000
  H   H98       1.0  0.24038  0.56210  0.48229  1.0000
  C   C279      1.0  0.34083  0.56832  0.42048  1.0000
  N   N27       1.0  0.36622  0.59084  0.41573  1.0000
  C   C280      1.0  0.43850  0.66596  0.42056  1.0000
  H   H99       1.0  0.33186  0.56202  0.48236  1.0000
  N   N28       1.0  0.41597  0.64058  0.41578  1.0000
  H   H100      1.0  0.44478  0.67493  0.48245  1.0000
  C   C281      1.0  0.43854  0.76921  0.42023  1.0000
  N   N29       1.0  0.41598  0.77202  0.41554  1.0000
  C   C282      1.0  0.34085  0.76917  0.42045  1.0000
  H   H101      1.0  0.44474  0.76640  0.48209  1.0000
  N   N30       1.0  0.36623  0.77201  0.41567  1.0000
  H   H102      1.0  0.33187  0.76643  0.48232  1.0000
  C   C283      1.0  0.77367  0.33636  0.42056  1.0000
  N   N31       1.0  0.77654  0.36175  0.41578  1.0000
  C   C284      1.0  0.77369  0.43402  0.42053  1.0000
  H   H103      1.0  0.77100  0.32740  0.48245  1.0000
  N   N32       1.0  0.77655  0.41150  0.41577  1.0000
  H   H104      1.0  0.77101  0.44031  0.48241  1.0000
  C   C285      1.0  0.67049  0.43401  0.42021  1.0000
  N   N33       1.0  0.64512  0.41146  0.41545  1.0000
  C   C286      1.0  0.57285  0.33632  0.42017  1.0000
  H   H105      1.0  0.67950  0.44019  0.48207  1.0000
  N   N34       1.0  0.59539  0.36171  0.41545  1.0000
  H   H106      1.0  0.56660  0.32731  0.48201  1.0000
  C   C287      1.0  0.57284  0.23314  0.42062  1.0000
  N   N35       1.0  0.59536  0.23027  0.41581  1.0000
  C   C288      1.0  0.67046  0.23304  0.42047  1.0000
  H   H107      1.0  0.56655  0.23580  0.48253  1.0000
  N   N36       1.0  0.64509  0.23023  0.41570  1.0000
  H   H108      1.0  0.67946  0.23583  0.48232  1.0000
