data_image0
_chemical_formula_structural       C2NOCHC2NOCHC4H2CNCHCOCHC6H3C6H3C4H2C4H2C2NOCHC2HC2HC2NOCHC2NOCHC2NOCHC2NOCHC4H2C4H2C4H2C4H2C4H2COC2NOCHC2NOCHCNC2NOCHC2NOCHC6H3C6H3C6H3C6H3C6H3C6H3C6H3C6H3C6H3C6H3C4H2C4H2C4H2C4H2C2NOCHC2NOCHC2NOCHC2NOCHC2NOCHC2HC4H2C4H2C2HC4H2C4H2
_chemical_formula_sum              "C198 N18 O18 H90"
_cell_length_a       39.7697
_cell_length_b       39.7697
_cell_length_c       14.7891
_cell_angle_alpha    90
_cell_angle_beta     90
_cell_angle_gamma    120

_space_group_name_H-M_alt    "P 1"
_space_group_IT_number       1

loop_
  _space_group_symop_operation_xyz
  'x, y, z'

loop_
  _atom_site_type_symbol
  _atom_site_label
  _atom_site_symmetry_multiplicity
  _atom_site_fract_x
  _atom_site_fract_y
  _atom_site_fract_z
  _atom_site_occupancy
  C   C1        1.0  0.25454  0.45935  0.26789  1.0000
  C   C2        1.0  0.21955  0.45957  0.26855  1.0000
  N   N1        1.0  0.21071  0.46197  0.18285  1.0000
  O   O1        1.0  0.26820  0.46185  0.18223  1.0000
  C   C3        1.0  0.23929  0.46253  0.13341  1.0000
  H   H1        1.0  0.24041  0.46527  0.06467  1.0000
  C   C4        1.0  0.21905  0.78180  0.26799  1.0000
  C   C5        1.0  0.25427  0.81679  0.26859  1.0000
  N   N2        1.0  0.26550  0.82560  0.18288  1.0000
  O   O2        1.0  0.20787  0.76814  0.18234  1.0000
  C   C6        1.0  0.23745  0.79702  0.13349  1.0000
  H   H2        1.0  0.23907  0.79589  0.06475  1.0000
  C   C7        1.0  0.15109  0.62254  0.34513  1.0000
  C   C8        1.0  0.15122  0.55060  0.34504  1.0000
  C   C9        1.0  0.15114  0.56881  0.26287  1.0000
  C   C10       1.0  0.15105  0.60430  0.26289  1.0000
  H   H3        1.0  0.14910  0.61577  0.20249  1.0000
  H   H4        1.0  0.14928  0.55544  0.20244  1.0000
  C   C11       1.0  0.03696  0.40056  0.26890  1.0000
  N   N3        1.0  0.04850  0.41012  0.18355  1.0000
  C   C12       1.0  0.01585  0.39455  0.13405  1.0000
  H   H5        1.0  0.01613  0.39905  0.06602  1.0000
  C   C13       1.0  0.03734  0.65904  0.26794  1.0000
  O   O3        1.0  0.05164  0.66247  0.18261  1.0000
  C   C14       1.0  0.01792  0.64422  0.13383  1.0000
  H   H6        1.0  0.01765  0.64067  0.06541  1.0000
  C   C15       1.0  0.14463  0.51219  0.34598  1.0000
  C   C16       1.0  0.10617  0.48077  0.34696  1.0000
  C   C17       1.0  0.09824  0.44194  0.34873  1.0000
  C   C18       1.0  0.12975  0.43479  0.34961  1.0000
  C   C19       1.0  0.16864  0.46596  0.34865  1.0000
  C   C20       1.0  0.17567  0.50455  0.34689  1.0000
  H   H7        1.0  0.12433  0.40678  0.35091  1.0000
  H   H8        1.0  0.20365  0.52733  0.34638  1.0000
  H   H9        1.0  0.08358  0.48628  0.34651  1.0000
  C   C21       1.0  0.14456  0.65438  0.34605  1.0000
  C   C22       1.0  0.10610  0.64735  0.34696  1.0000
  C   C23       1.0  0.09817  0.67825  0.34873  1.0000
  C   C24       1.0  0.12968  0.71690  0.34947  1.0000
  C   C25       1.0  0.16857  0.72461  0.34871  1.0000
  C   C26       1.0  0.17560  0.69306  0.34705  1.0000
  H   H10       1.0  0.12427  0.73950  0.35063  1.0000
  H   H11       1.0  0.20358  0.69824  0.34659  1.0000
  H   H12       1.0  0.08350  0.61923  0.34647  1.0000
  C   C27       1.0  0.27326  0.45976  0.34937  1.0000
  C   C28       1.0  0.20078  0.45960  0.34953  1.0000
  C   C29       1.0  0.21934  0.45987  0.43149  1.0000
  C   C30       1.0  0.25499  0.45997  0.43144  1.0000
  H   H13       1.0  0.26839  0.46194  0.49189  1.0000
  H   H14       1.0  0.20789  0.46175  0.49198  1.0000
  C   C31       1.0  0.20072  0.76310  0.34948  1.0000
  C   C32       1.0  0.27309  0.83555  0.34955  1.0000
  C   C33       1.0  0.25480  0.81702  0.43153  1.0000
  C   C34       1.0  0.21924  0.78138  0.43152  1.0000
  H   H15       1.0  0.20782  0.76799  0.49198  1.0000
  H   H16       1.0  0.26815  0.82848  0.49202  1.0000
  C   C35       1.0  0.15158  0.60444  0.42682  1.0000
  C   C36       1.0  0.15131  0.56927  0.42619  1.0000
  N   N4        1.0  0.14875  0.55794  0.51186  1.0000
  O   O4        1.0  0.14893  0.61556  0.51242  1.0000
  C   C37       1.0  0.14821  0.58597  0.56129  1.0000
  H   H17       1.0  0.14525  0.58425  0.62998  1.0000
  C   C38       1.0  0.05874  0.41178  0.34980  1.0000
  C   C39       1.0  0.03744  0.40113  0.43174  1.0000
  H   H18       1.0  0.05165  0.41112  0.49204  1.0000
  C   C40       1.0  0.05867  0.66885  0.34949  1.0000
  C   C41       1.0  0.03739  0.65822  0.43151  1.0000
  H   H19       1.0  0.05158  0.66235  0.49181  1.0000
  C   C42       1.0  0.57691  0.81724  0.26793  1.0000
  C   C43       1.0  0.57662  0.78199  0.26855  1.0000
  N   N5        1.0  0.57430  0.77080  0.18284  1.0000
  O   O5        1.0  0.57450  0.82846  0.18227  1.0000
  C   C44       1.0  0.57359  0.79876  0.13348  1.0000
  H   H20       1.0  0.57142  0.79743  0.06462  1.0000
  C   C45       1.0  0.77916  0.57953  0.26791  1.0000
  C   C46       1.0  0.81413  0.57926  0.26855  1.0000
  N   N6        1.0  0.82300  0.57694  0.18284  1.0000
  O   O6        1.0  0.76553  0.57710  0.18225  1.0000
  C   C47       1.0  0.79432  0.57619  0.13347  1.0000
  H   H21       1.0  0.79348  0.57401  0.06461  1.0000
  C   C48       1.0  0.45676  0.22169  0.26793  1.0000
  C   C49       1.0  0.45696  0.25690  0.26857  1.0000
  N   N7        1.0  0.45936  0.26813  0.18288  1.0000
  O   O7        1.0  0.45926  0.21054  0.18227  1.0000
  C   C50       1.0  0.45994  0.24011  0.13346  1.0000
  H   H22       1.0  0.46267  0.24174  0.06472  1.0000
  C   C51       1.0  0.81462  0.25721  0.26782  1.0000
  C   C52       1.0  0.77937  0.22225  0.26849  1.0000
  N   N8        1.0  0.76817  0.21336  0.18280  1.0000
  O   O8        1.0  0.82582  0.27082  0.18215  1.0000
  C   C53       1.0  0.79612  0.24203  0.13339  1.0000
  H   H23       1.0  0.79477  0.24285  0.06453  1.0000
  C   C54       1.0  0.41385  0.55059  0.34521  1.0000
  C   C55       1.0  0.48575  0.62269  0.34521  1.0000
  C   C56       1.0  0.46752  0.60446  0.26302  1.0000
  C   C57       1.0  0.43208  0.56883  0.26298  1.0000
  H   H24       1.0  0.42059  0.55545  0.20255  1.0000
  H   H25       1.0  0.48090  0.61598  0.20259  1.0000
  C   C58       1.0  0.48570  0.88526  0.34519  1.0000
  C   C59       1.0  0.41366  0.88519  0.34504  1.0000
  C   C60       1.0  0.43194  0.88524  0.26288  1.0000
  C   C61       1.0  0.46751  0.88532  0.26293  1.0000
  H   H26       1.0  0.48094  0.88727  0.20253  1.0000
  H   H27       1.0  0.42043  0.88711  0.20244  1.0000
  C   C62       1.0  0.88270  0.41646  0.34520  1.0000
  C   C63       1.0  0.88255  0.48839  0.34523  1.0000
  C   C64       1.0  0.88252  0.47015  0.26302  1.0000
  C   C65       1.0  0.88271  0.43471  0.26299  1.0000
  H   H28       1.0  0.88459  0.42322  0.20254  1.0000
  H   H29       1.0  0.88438  0.48353  0.20259  1.0000
  C   C66       1.0  0.61992  0.48831  0.34520  1.0000
  C   C67       1.0  0.54797  0.41626  0.34505  1.0000
  C   C68       1.0  0.56618  0.43455  0.26290  1.0000
  C   C69       1.0  0.60168  0.47012  0.26294  1.0000
  H   H30       1.0  0.61316  0.48355  0.20254  1.0000
  H   H31       1.0  0.55282  0.42304  0.20245  1.0000
  C   C70       1.0  0.54800  0.15361  0.34520  1.0000
  C   C71       1.0  0.62005  0.15375  0.34522  1.0000
  C   C72       1.0  0.60188  0.15383  0.26300  1.0000
  C   C73       1.0  0.56625  0.15365  0.26297  1.0000
  H   H32       1.0  0.55288  0.15178  0.20253  1.0000
  H   H33       1.0  0.61341  0.15198  0.20258  1.0000
  C   C74       1.0  0.99642  0.37988  0.26824  1.0000
  O   O9        1.0  0.98214  0.37664  0.18295  1.0000
  C   C75       1.0  0.65643  0.63857  0.26800  1.0000
  C   C76       1.0  0.63564  0.65831  0.26860  1.0000
  N   N9        1.0  0.62627  0.66049  0.18320  1.0000
  O   O10       1.0  0.65988  0.62770  0.18268  1.0000
  C   C77       1.0  0.64162  0.64316  0.13387  1.0000
  H   H34       1.0  0.63808  0.63987  0.06544  1.0000
  C   C78       1.0  0.39767  0.03991  0.26819  1.0000
  C   C79       1.0  0.37781  0.99937  0.26887  1.0000
  N   N10       1.0  0.37583  0.98783  0.18353  1.0000
  O   O11       1.0  0.40870  0.05418  0.18289  1.0000
  C   C80       1.0  0.39291  0.02047  0.13401  1.0000
  H   H35       1.0  0.39713  0.02018  0.06598  1.0000
  C   C81       1.0  0.99680  0.63824  0.26859  1.0000
  N   N11       1.0  0.98525  0.62887  0.18320  1.0000
  C   C82       1.0  0.37721  0.40028  0.26818  1.0000
  C   C83       1.0  0.39791  0.38044  0.26879  1.0000
  N   N12       1.0  0.40747  0.37847  0.18344  1.0000
  O   O12       1.0  0.37396  0.41132  0.18289  1.0000
  C   C84       1.0  0.39187  0.39553  0.13397  1.0000
  H   H36       1.0  0.39637  0.39976  0.06594  1.0000
  C   C85       1.0  0.63597  0.99901  0.26796  1.0000
  C   C86       1.0  0.65572  0.03955  0.26865  1.0000
  N   N13       1.0  0.65791  0.05111  0.18327  1.0000
  O   O13       1.0  0.62509  0.98472  0.18263  1.0000
  C   C87       1.0  0.64057  0.01845  0.13387  1.0000
  H   H37       1.0  0.63729  0.01873  0.06545  1.0000
  C   C88       1.0  0.52416  0.65453  0.34612  1.0000
  C   C89       1.0  0.55559  0.64750  0.34700  1.0000
  C   C90       1.0  0.59441  0.67840  0.34874  1.0000
  C   C91       1.0  0.60155  0.71705  0.34961  1.0000
  C   C92       1.0  0.57037  0.72476  0.34875  1.0000
  C   C93       1.0  0.53179  0.69320  0.34703  1.0000
  H   H38       1.0  0.62956  0.73966  0.35078  1.0000
  H   H39       1.0  0.50899  0.69838  0.34656  1.0000
  H   H40       1.0  0.55007  0.61938  0.34649  1.0000
  C   C94       1.0  0.38182  0.89175  0.34600  1.0000
  C   C95       1.0  0.38884  0.93020  0.34696  1.0000
  C   C96       1.0  0.35793  0.93811  0.34874  1.0000
  C   C97       1.0  0.31928  0.90659  0.34961  1.0000
  C   C98       1.0  0.31159  0.86771  0.34867  1.0000
  C   C99       1.0  0.34315  0.86069  0.34690  1.0000
  H   H41       1.0  0.29667  0.91199  0.35091  1.0000
  H   H42       1.0  0.33797  0.83272  0.34640  1.0000
  H   H43       1.0  0.41695  0.95280  0.34651  1.0000
  C   C100      1.0  0.88913  0.52680  0.34611  1.0000
  C   C101      1.0  0.92759  0.55822  0.34701  1.0000
  C   C102      1.0  0.93553  0.59705  0.34874  1.0000
  C   C103      1.0  0.90402  0.60420  0.34961  1.0000
  C   C104      1.0  0.86513  0.57303  0.34874  1.0000
  C   C105      1.0  0.85809  0.53444  0.34701  1.0000
  H   H44       1.0  0.90945  0.63222  0.35079  1.0000
  H   H45       1.0  0.83011  0.51165  0.34653  1.0000
  H   H46       1.0  0.95018  0.55269  0.34653  1.0000
  C   C106      1.0  0.50956  0.38443  0.34601  1.0000
  C   C107      1.0  0.47814  0.39147  0.34694  1.0000
  C   C108      1.0  0.43931  0.36057  0.34871  1.0000
  C   C109      1.0  0.43217  0.32192  0.34959  1.0000
  C   C110      1.0  0.46334  0.31420  0.34868  1.0000
  C   C111      1.0  0.50192  0.34575  0.34694  1.0000
  H   H47       1.0  0.40415  0.29932  0.35087  1.0000
  H   H48       1.0  0.52471  0.34057  0.34644  1.0000
  H   H49       1.0  0.48365  0.41958  0.34648  1.0000
  C   C112      1.0  0.65191  0.14722  0.34613  1.0000
  C   C113      1.0  0.64490  0.10876  0.34704  1.0000
  C   C114      1.0  0.67581  0.10085  0.34876  1.0000
  C   C115      1.0  0.71445  0.13237  0.34961  1.0000
  C   C116      1.0  0.72215  0.17126  0.34873  1.0000
  C   C117      1.0  0.69058  0.17827  0.34701  1.0000
  H   H50       1.0  0.73706  0.12698  0.35078  1.0000
  H   H51       1.0  0.69575  0.20624  0.34652  1.0000
  H   H52       1.0  0.61679  0.08615  0.34656  1.0000
  C   C118      1.0  0.50963  0.14712  0.34596  1.0000
  C   C119      1.0  0.47818  0.10868  0.34693  1.0000
  C   C120      1.0  0.43937  0.10080  0.34867  1.0000
  C   C121      1.0  0.43227  0.13233  0.34940  1.0000
  C   C122      1.0  0.46348  0.17121  0.34858  1.0000
  C   C123      1.0  0.50205  0.17820  0.34691  1.0000
  H   H53       1.0  0.40426  0.12695  0.35062  1.0000
  H   H54       1.0  0.52486  0.20616  0.34646  1.0000
  H   H55       1.0  0.48367  0.08606  0.34652  1.0000
  C   C124      1.0  0.65177  0.52669  0.34610  1.0000
  C   C125      1.0  0.64475  0.55812  0.34704  1.0000
  C   C126      1.0  0.67566  0.59694  0.34878  1.0000
  C   C127      1.0  0.71430  0.60407  0.34949  1.0000
  C   C128      1.0  0.72200  0.57288  0.34871  1.0000
  C   C129      1.0  0.69044  0.53431  0.34706  1.0000
  H   H56       1.0  0.73692  0.63209  0.35060  1.0000
  H   H57       1.0  0.69561  0.51150  0.34658  1.0000
  H   H58       1.0  0.61664  0.55262  0.34657  1.0000
  C   C130      1.0  0.88922  0.38461  0.34596  1.0000
  C   C131      1.0  0.92767  0.39162  0.34699  1.0000
  C   C132      1.0  0.93557  0.36070  0.34873  1.0000
  C   C133      1.0  0.90404  0.32206  0.34942  1.0000
  C   C134      1.0  0.86516  0.31437  0.34856  1.0000
  C   C135      1.0  0.85816  0.34594  0.34686  1.0000
  H   H59       1.0  0.90943  0.29944  0.35063  1.0000
  H   H60       1.0  0.83019  0.34078  0.34637  1.0000
  H   H61       1.0  0.95028  0.41973  0.34661  1.0000
  C   C136      1.0  0.52407  0.89179  0.34610  1.0000
  C   C137      1.0  0.55551  0.93024  0.34701  1.0000
  C   C138      1.0  0.59433  0.93815  0.34876  1.0000
  C   C139      1.0  0.60146  0.90663  0.34948  1.0000
  C   C140      1.0  0.57027  0.86775  0.34873  1.0000
  C   C141      1.0  0.53169  0.86074  0.34708  1.0000
  H   H62       1.0  0.62947  0.91204  0.35060  1.0000
  H   H63       1.0  0.50889  0.83277  0.34661  1.0000
  H   H64       1.0  0.55000  0.95285  0.34651  1.0000
  C   C142      1.0  0.38198  0.51222  0.34595  1.0000
  C   C143      1.0  0.38898  0.48078  0.34696  1.0000
  C   C144      1.0  0.35805  0.44196  0.34869  1.0000
  C   C145      1.0  0.31941  0.43486  0.34940  1.0000
  C   C146      1.0  0.31174  0.46606  0.34856  1.0000
  C   C147      1.0  0.34331  0.50463  0.34688  1.0000
  H   H65       1.0  0.29679  0.40685  0.35062  1.0000
  H   H66       1.0  0.33816  0.52744  0.34643  1.0000
  H   H67       1.0  0.41708  0.48627  0.34658  1.0000
  C   C148      1.0  0.57657  0.83558  0.34942  1.0000
  C   C149      1.0  0.57671  0.76326  0.34952  1.0000
  C   C150      1.0  0.57658  0.78160  0.43152  1.0000
  C   C151      1.0  0.57641  0.81711  0.43149  1.0000
  H   H68       1.0  0.57451  0.82857  0.49196  1.0000
  H   H69       1.0  0.57470  0.76826  0.49200  1.0000
  C   C152      1.0  0.76048  0.57920  0.34939  1.0000
  C   C153      1.0  0.83300  0.57940  0.34949  1.0000
  C   C154      1.0  0.81447  0.57919  0.43147  1.0000
  C   C155      1.0  0.77878  0.57900  0.43144  1.0000
  H   H70       1.0  0.76541  0.57708  0.49192  1.0000
  H   H71       1.0  0.82591  0.57729  0.49196  1.0000
  C   C156      1.0  0.45717  0.20338  0.34941  1.0000
  C   C157      1.0  0.45697  0.27570  0.34954  1.0000
  C   C158      1.0  0.45730  0.25743  0.43149  1.0000
  C   C159      1.0  0.45741  0.22189  0.43147  1.0000
  H   H72       1.0  0.45940  0.21047  0.49191  1.0000
  H   H73       1.0  0.45919  0.27077  0.49198  1.0000
  C   C160      1.0  0.83299  0.27590  0.34928  1.0000
  C   C161      1.0  0.76065  0.20340  0.34946  1.0000
  C   C162      1.0  0.77898  0.22194  0.43142  1.0000
  C   C163      1.0  0.81450  0.25762  0.43135  1.0000
  H   H74       1.0  0.82595  0.27100  0.49181  1.0000
  H   H75       1.0  0.76564  0.21051  0.49191  1.0000
  C   C164      1.0  0.43195  0.56913  0.42692  1.0000
  C   C165      1.0  0.46715  0.60401  0.42633  1.0000
  N   N14       1.0  0.47841  0.61283  0.51203  1.0000
  O   O14       1.0  0.42076  0.55539  0.51251  1.0000
  C   C166      1.0  0.45046  0.58413  0.56137  1.0000
  H   H76       1.0  0.45185  0.58321  0.63021  1.0000
  C   C167      1.0  0.46711  0.88479  0.42685  1.0000
  C   C168      1.0  0.43221  0.88507  0.42621  1.0000
  N   N15       1.0  0.42343  0.88762  0.51188  1.0000
  O   O15       1.0  0.48086  0.88742  0.51246  1.0000
  C   C169      1.0  0.45200  0.88815  0.56132  1.0000
  H   H77       1.0  0.45322  0.89110  0.63002  1.0000
  C   C170      1.0  0.88229  0.43458  0.42691  1.0000
  C   C171      1.0  0.88262  0.46978  0.42635  1.0000
  N   N16       1.0  0.88507  0.48104  0.51204  1.0000
  O   O16       1.0  0.88484  0.42338  0.51250  1.0000
  C   C172      1.0  0.88580  0.45308  0.56138  1.0000
  H   H78       1.0  0.88812  0.45447  0.63021  1.0000
  C   C173      1.0  0.60181  0.46973  0.42687  1.0000
  C   C174      1.0  0.56663  0.43482  0.42622  1.0000
  N   N17       1.0  0.55530  0.42604  0.51189  1.0000
  O   O17       1.0  0.61293  0.48348  0.51248  1.0000
  C   C175      1.0  0.58334  0.45461  0.56133  1.0000
  H   H79       1.0  0.58161  0.45584  0.63002  1.0000
  C   C176      1.0  0.56653  0.15404  0.42692  1.0000
  C   C177      1.0  0.60140  0.15371  0.42635  1.0000
  N   N18       1.0  0.61022  0.15127  0.51205  1.0000
  O   O18       1.0  0.55279  0.15151  0.51251  1.0000
  C   C178      1.0  0.58153  0.15055  0.56138  1.0000
  H   H80       1.0  0.58061  0.14824  0.63021  1.0000
  C   C179      1.0  0.97506  0.37006  0.34977  1.0000
  C   C180      1.0  0.99635  0.38071  0.43177  1.0000
  H   H81       1.0  0.98214  0.37662  0.49202  1.0000
  C   C181      1.0  0.66629  0.62706  0.34951  1.0000
  C   C182      1.0  0.62457  0.66905  0.34941  1.0000
  C   C183      1.0  0.63526  0.65848  0.43142  1.0000
  C   C184      1.0  0.65556  0.63768  0.43146  1.0000
  H   H82       1.0  0.65966  0.62762  0.49179  1.0000
  H   H83       1.0  0.62522  0.66264  0.49171  1.0000
  C   C185      1.0  0.40923  0.06132  0.34967  1.0000
  C   C186      1.0  0.36726  0.97761  0.34978  1.0000
  C   C187      1.0  0.37793  0.99893  0.43169  1.0000
  C   C188      1.0  0.39860  0.04002  0.43167  1.0000
  H   H84       1.0  0.40873  0.05423  0.49192  1.0000
  H   H85       1.0  0.37372  0.98473  0.49200  1.0000
  C   C189      1.0  0.97504  0.62719  0.34948  1.0000
  C   C190      1.0  0.99630  0.63792  0.43151  1.0000
  H   H86       1.0  0.98208  0.62790  0.49179  1.0000
  C   C191      1.0  0.36741  0.41183  0.34973  1.0000
  C   C192      1.0  0.40915  0.36993  0.34970  1.0000
  C   C193      1.0  0.39850  0.38053  0.43168  1.0000
  C   C194      1.0  0.37806  0.40119  0.43172  1.0000
  H   H87       1.0  0.37398  0.41130  0.49198  1.0000
  H   H88       1.0  0.40849  0.37631  0.49198  1.0000
  C   C195      1.0  0.62445  0.97765  0.34945  1.0000
  C   C196      1.0  0.66649  0.06136  0.34949  1.0000
  C   C197      1.0  0.65586  0.04004  0.43144  1.0000
  C   C198      1.0  0.63506  0.99895  0.43145  1.0000
  H   H89       1.0  0.62498  0.98477  0.49176  1.0000
  H   H90       1.0  0.66002  0.05424  0.49174  1.0000
