data_image0
_chemical_formula_structural       CO2NC2N2C2NCNO2C2NCNO2NCHNCHNCHNCHNCHNCHC24H15C24H15C24H15C24H15C24H15C24H15CHNCHNCHC2NCNO2C2NCNO2C2NCNO2C2NCNO2C2NCNO2C2NCNO2
_chemical_formula_sum              "C180 O18 N27 H99"
_cell_length_a       61.3855
_cell_length_b       61.3855
_cell_length_c       14.9915
_cell_angle_alpha    90
_cell_angle_beta     90
_cell_angle_gamma    120

_space_group_name_H-M_alt    "P 1"
_space_group_IT_number       1

loop_
  _space_group_symop_operation_xyz
  'x, y, z'

loop_
  _atom_site_type_symbol
  _atom_site_label
  _atom_site_symmetry_multiplicity
  _atom_site_fract_x
  _atom_site_fract_y
  _atom_site_fract_z
  _atom_site_occupancy
  C   C1        1.0  0.01172  0.50409  0.23858  1.0000
  O   O1        1.0  0.01467  0.51610  0.09960  1.0000
  O   O2        1.0  0.01502  0.48371  0.12433  1.0000
  N   N1        1.0  0.01536  0.51111  0.39497  1.0000
  C   C2        1.0  0.02712  0.51451  0.31496  1.0000
  C   C3        1.0  0.97444  0.48839  0.32994  1.0000
  N   N2        1.0  0.98629  0.49149  0.25029  1.0000
  N   N3        1.0  0.02201  0.50541  0.15335  1.0000
  C   C4        1.0  0.48720  0.51336  0.31425  1.0000
  C   C5        1.0  0.51389  0.48730  0.33001  1.0000
  N   N4        1.0  0.50559  0.49079  0.25007  1.0000
  C   C6        1.0  0.49263  0.50323  0.23795  1.0000
  N   N5        1.0  0.48618  0.50672  0.15097  1.0000
  O   O3        1.0  0.47256  0.48582  0.11410  1.0000
  O   O4        1.0  0.50562  0.51882  0.10440  1.0000
  C   C7        1.0  0.48759  0.97363  0.31173  1.0000
  C   C8        1.0  0.51423  0.02633  0.32450  1.0000
  N   N6        1.0  0.50496  0.01423  0.24558  1.0000
  C   C9        1.0  0.49205  0.98877  0.23496  1.0000
  N   N7        1.0  0.48254  0.97818  0.15051  1.0000
  O   O5        1.0  0.50020  0.98534  0.09530  1.0000
  O   O6        1.0  0.46762  0.98506  0.12268  1.0000
  N   N8        1.0  0.25590  0.53692  0.27441  1.0000
  C   C10       1.0  0.27748  0.53617  0.26539  1.0000
  H   H1        1.0  0.28705  0.54194  0.20645  1.0000
  N   N9        1.0  0.46401  0.71937  0.26998  1.0000
  C   C11       1.0  0.46482  0.74172  0.26070  1.0000
  H   H2        1.0  0.45873  0.74535  0.20216  1.0000
  N   N10       1.0  0.28159  0.74519  0.27309  1.0000
  C   C12       1.0  0.25927  0.72364  0.26339  1.0000
  H   H3        1.0  0.25566  0.71413  0.20439  1.0000
  N   N11       1.0  0.74942  0.47317  0.24533  1.0000
  C   C13       1.0  0.72814  0.47449  0.23716  1.0000
  H   H4        1.0  0.72284  0.47703  0.17521  1.0000
  N   N12       1.0  0.52796  0.27440  0.27593  1.0000
  C   C14       1.0  0.52669  0.25172  0.27688  1.0000
  H   H5        1.0  0.52553  0.24318  0.21725  1.0000
  N   N13       1.0  0.72536  0.25492  0.26493  1.0000
  C   C15       1.0  0.74795  0.27644  0.26678  1.0000
  H   H6        1.0  0.75592  0.28486  0.20754  1.0000
  C   C16       1.0  0.17399  0.60873  0.33375  1.0000
  C   C17       1.0  0.14765  0.59495  0.32230  1.0000
  C   C18       1.0  0.13448  0.56829  0.32055  1.0000
  C   C19       1.0  0.14841  0.55564  0.32762  1.0000
  C   C20       1.0  0.17480  0.56902  0.33868  1.0000
  C   C21       1.0  0.18726  0.59555  0.34162  1.0000
  C   C22       1.0  0.10767  0.55449  0.31670  1.0000
  C   C23       1.0  0.09426  0.56052  0.25402  1.0000
  C   C24       1.0  0.06778  0.54722  0.25235  1.0000
  C   C25       1.0  0.05385  0.52758  0.31376  1.0000
  C   C26       1.0  0.06723  0.52180  0.37728  1.0000
  C   C27       1.0  0.09368  0.53488  0.37823  1.0000
  C   C28       1.0  0.18745  0.63536  0.33943  1.0000
  C   C29       1.0  0.19021  0.65031  0.26399  1.0000
  C   C30       1.0  0.20779  0.67628  0.26451  1.0000
  C   C31       1.0  0.22282  0.68808  0.34061  1.0000
  C   C32       1.0  0.21868  0.67317  0.41777  1.0000
  C   C33       1.0  0.20149  0.64720  0.41693  1.0000
  C   C34       1.0  0.18893  0.55652  0.34778  1.0000
  C   C35       1.0  0.20592  0.56255  0.41964  1.0000
  C   C36       1.0  0.22254  0.55310  0.42306  1.0000
  C   C37       1.0  0.22271  0.53724  0.35493  1.0000
  C   C38       1.0  0.20535  0.53081  0.28394  1.0000
  C   C39       1.0  0.18843  0.54001  0.28100  1.0000
  H   H7        1.0  0.21017  0.68630  0.20726  1.0000
  H   H8        1.0  0.18088  0.64212  0.20600  1.0000
  H   H9        1.0  0.22954  0.68061  0.47356  1.0000
  H   H10       1.0  0.20027  0.63676  0.47199  1.0000
  H   H11       1.0  0.20707  0.57476  0.46844  1.0000
  H   H12       1.0  0.23568  0.55940  0.47295  1.0000
  H   H13       1.0  0.17698  0.53596  0.22652  1.0000
  H   H14       1.0  0.20544  0.51999  0.23212  1.0000
  H   H15       1.0  0.10263  0.53034  0.42613  1.0000
  H   H16       1.0  0.05782  0.50782  0.42322  1.0000
  H   H17       1.0  0.05878  0.55250  0.20723  1.0000
  H   H18       1.0  0.10369  0.57463  0.20858  1.0000
  H   H19       1.0  0.13790  0.60446  0.31957  1.0000
  H   H20       1.0  0.20646  0.60553  0.34835  1.0000
  H   H21       1.0  0.13920  0.53638  0.32632  1.0000
  C   C40       1.0  0.39215  0.56555  0.33686  1.0000
  C   C41       1.0  0.40598  0.55302  0.32604  1.0000
  C   C42       1.0  0.43264  0.56653  0.32165  1.0000
  C   C43       1.0  0.44514  0.59318  0.32588  1.0000
  C   C44       1.0  0.43175  0.60616  0.33733  1.0000
  C   C45       1.0  0.40526  0.59203  0.34247  1.0000
  C   C46       1.0  0.44659  0.55358  0.31712  1.0000
  C   C47       1.0  0.43871  0.53214  0.26230  1.0000
  C   C48       1.0  0.45202  0.51898  0.26058  1.0000
  C   C49       1.0  0.47387  0.52685  0.31304  1.0000
  C   C50       1.0  0.48162  0.54813  0.36848  1.0000
  C   C51       1.0  0.46830  0.56126  0.37029  1.0000
  C   C52       1.0  0.36553  0.55234  0.34293  1.0000
  C   C53       1.0  0.35058  0.53997  0.26770  1.0000
  C   C54       1.0  0.32462  0.53165  0.26794  1.0000
  C   C55       1.0  0.31286  0.53516  0.34355  1.0000
  C   C56       1.0  0.32776  0.54610  0.42061  1.0000
  C   C57       1.0  0.35372  0.55482  0.42000  1.0000
  C   C58       1.0  0.44422  0.63283  0.34504  1.0000
  C   C59       1.0  0.43850  0.64404  0.41693  1.0000
  C   C60       1.0  0.44801  0.67012  0.41952  1.0000
  C   C61       1.0  0.46375  0.68595  0.35074  1.0000
  C   C62       1.0  0.46989  0.67478  0.27975  1.0000
  C   C63       1.0  0.46054  0.64863  0.27745  1.0000
  H   H22       1.0  0.31460  0.52390  0.21076  1.0000
  H   H23       1.0  0.35875  0.53866  0.20994  1.0000
  H   H24       1.0  0.32032  0.54973  0.47593  1.0000
  H   H25       1.0  0.36418  0.56423  0.47479  1.0000
  H   H26       1.0  0.42643  0.63314  0.46634  1.0000
  H   H27       1.0  0.44195  0.67714  0.46956  1.0000
  H   H28       1.0  0.46443  0.64106  0.22310  1.0000
  H   H29       1.0  0.48060  0.68554  0.22747  1.0000
  H   H30       1.0  0.47433  0.57617  0.41305  1.0000
  H   H31       1.0  0.49718  0.55438  0.40824  1.0000
  H   H32       1.0  0.44505  0.50309  0.22238  1.0000
  H   H33       1.0  0.42312  0.52584  0.22274  1.0000
  H   H34       1.0  0.39646  0.53376  0.32532  1.0000
  H   H35       1.0  0.39525  0.60123  0.34898  1.0000
  H   H36       1.0  0.46437  0.60337  0.32221  1.0000
  C   C64       1.0  0.43520  0.82683  0.33414  1.0000
  C   C65       1.0  0.44775  0.85316  0.32236  1.0000
  C   C66       1.0  0.43427  0.86633  0.32089  1.0000
  C   C67       1.0  0.40770  0.85242  0.32839  1.0000
  C   C68       1.0  0.39469  0.82604  0.33958  1.0000
  C   C69       1.0  0.40876  0.81358  0.34244  1.0000
  C   C70       1.0  0.44725  0.89312  0.31640  1.0000
  C   C71       1.0  0.46640  0.90639  0.25263  1.0000
  C   C72       1.0  0.47950  0.93285  0.25001  1.0000
  C   C73       1.0  0.47401  0.94691  0.31159  1.0000
  C   C74       1.0  0.45516  0.93367  0.37628  1.0000
  C   C75       1.0  0.44186  0.90723  0.37816  1.0000
  C   C76       1.0  0.44838  0.81336  0.33914  1.0000
  C   C77       1.0  0.46061  0.81081  0.26342  1.0000
  C   C78       1.0  0.46904  0.79326  0.26321  1.0000
  C   C79       1.0  0.46586  0.77812  0.33890  1.0000
  C   C80       1.0  0.45506  0.78207  0.41639  1.0000
  C   C81       1.0  0.44623  0.79921  0.41627  1.0000
  C   C82       1.0  0.36805  0.81191  0.34834  1.0000
  C   C83       1.0  0.35697  0.79479  0.41976  1.0000
  C   C84       1.0  0.33089  0.77820  0.42268  1.0000
  C   C85       1.0  0.31497  0.77821  0.35443  1.0000
  C   C86       1.0  0.32600  0.79573  0.28397  1.0000
  C   C87       1.0  0.35214  0.81257  0.28147  1.0000
  H   H37       1.0  0.47670  0.79101  0.20578  1.0000
  H   H38       1.0  0.46173  0.82024  0.20573  1.0000
  H   H39       1.0  0.45165  0.77108  0.47182  1.0000
  H   H40       1.0  0.43696  0.80027  0.47147  1.0000
  H   H41       1.0  0.36795  0.79347  0.46848  1.0000
  H   H42       1.0  0.32395  0.76493  0.47211  1.0000
  H   H43       1.0  0.35962  0.82419  0.22743  1.0000
  H   H44       1.0  0.31517  0.79580  0.23214  1.0000
  H   H45       1.0  0.42855  0.89837  0.42670  1.0000
  H   H46       1.0  0.45076  0.94319  0.42233  1.0000
  H   H47       1.0  0.49356  0.94176  0.20406  1.0000
  H   H48       1.0  0.47090  0.89686  0.20700  1.0000
  H   H49       1.0  0.46700  0.86290  0.31922  1.0000
  H   H50       1.0  0.39953  0.79438  0.34910  1.0000
  H   H51       1.0  0.39766  0.86165  0.32709  1.0000
  C   C88       1.0  0.82722  0.39314  0.35256  1.0000
  C   C89       1.0  0.85375  0.40683  0.34866  1.0000
  C   C90       1.0  0.86703  0.43342  0.34214  1.0000
  C   C91       1.0  0.85319  0.44619  0.33700  1.0000
  C   C92       1.0  0.82662  0.43284  0.33647  1.0000
  C   C93       1.0  0.81400  0.40640  0.34552  1.0000
  C   C94       1.0  0.89381  0.44707  0.33964  1.0000
  C   C95       1.0  0.90718  0.44064  0.27832  1.0000
  C   C96       1.0  0.93362  0.45439  0.27487  1.0000
  C   C97       1.0  0.94765  0.47469  0.33397  1.0000
  C   C98       1.0  0.93418  0.48100  0.39553  1.0000
  C   C99       1.0  0.90773  0.46756  0.39788  1.0000
  C   C100      1.0  0.81345  0.36650  0.36050  1.0000
  C   C101      1.0  0.81492  0.35098  0.29404  1.0000
  C   C102      1.0  0.79752  0.32496  0.29254  1.0000
  C   C103      1.0  0.77824  0.31362  0.35756  1.0000
  C   C104      1.0  0.77815  0.32912  0.42750  1.0000
  C   C105      1.0  0.79527  0.35510  0.42857  1.0000
  C   C106      1.0  0.81234  0.44513  0.32611  1.0000
  C   C107      1.0  0.79352  0.43688  0.25967  1.0000
  C   C108      1.0  0.77666  0.44604  0.25676  1.0000
  C   C109      1.0  0.77788  0.46358  0.32071  1.0000
  C   C110      1.0  0.79756  0.47281  0.38432  1.0000
  C   C111      1.0  0.81466  0.46382  0.38674  1.0000
  H   H52       1.0  0.79854  0.31457  0.24107  1.0000
  H   H53       1.0  0.82748  0.35872  0.24260  1.0000
  H   H54       1.0  0.76430  0.32212  0.47494  1.0000
  H   H55       1.0  0.79344  0.36586  0.47695  1.0000
  H   H56       1.0  0.79123  0.42330  0.21487  1.0000
  H   H57       1.0  0.76244  0.43847  0.21070  1.0000
  H   H58       1.0  0.82776  0.46983  0.43673  1.0000
  H   H59       1.0  0.79912  0.48559  0.43134  1.0000
  H   H60       1.0  0.89870  0.47270  0.44345  1.0000
  H   H61       1.0  0.94346  0.49588  0.43811  1.0000
  H   H62       1.0  0.94254  0.44907  0.22950  1.0000
  H   H63       1.0  0.89773  0.42615  0.23423  1.0000
  H   H64       1.0  0.86350  0.39736  0.35389  1.0000
  H   H65       1.0  0.79470  0.39655  0.34627  1.0000
  H   H66       1.0  0.86252  0.46535  0.32944  1.0000
  C   C112      1.0  0.60821  0.43450  0.32361  1.0000
  C   C113      1.0  0.59450  0.44723  0.33165  1.0000
  C   C114      1.0  0.56787  0.43378  0.33543  1.0000
  C   C115      1.0  0.55517  0.40713  0.33378  1.0000
  C   C116      1.0  0.56843  0.39389  0.32682  1.0000
  C   C117      1.0  0.59497  0.40796  0.32204  1.0000
  C   C118      1.0  0.55410  0.44682  0.33632  1.0000
  C   C119      1.0  0.56008  0.46670  0.39686  1.0000
  C   C120      1.0  0.54671  0.47980  0.39600  1.0000
  C   C121      1.0  0.52714  0.47376  0.33370  1.0000
  C   C122      1.0  0.52141  0.45402  0.27263  1.0000
  C   C123      1.0  0.53448  0.44065  0.27437  1.0000
  C   C124      1.0  0.63480  0.44758  0.31496  1.0000
  C   C125      1.0  0.65046  0.46169  0.38655  1.0000
  C   C126      1.0  0.67648  0.47036  0.38394  1.0000
  C   C127      1.0  0.68768  0.46562  0.30929  1.0000
  C   C128      1.0  0.67193  0.45249  0.23612  1.0000
  C   C129      1.0  0.64593  0.44353  0.23902  1.0000
  C   C130      1.0  0.55589  0.36707  0.32508  1.0000
  C   C131      1.0  0.56287  0.35453  0.26195  1.0000
  C   C132      1.0  0.55356  0.32852  0.26784  1.0000
  C   C133      1.0  0.53694  0.31405  0.33716  1.0000
  C   C134      1.0  0.52860  0.32629  0.39656  1.0000
  C   C135      1.0  0.53793  0.35240  0.39071  1.0000
  H   H67       1.0  0.68705  0.47929  0.43904  1.0000
  H   H68       1.0  0.64282  0.46420  0.44364  1.0000
  H   H69       1.0  0.67874  0.44745  0.18251  1.0000
  H   H70       1.0  0.63498  0.43276  0.18714  1.0000
  H   H71       1.0  0.57571  0.36444  0.21309  1.0000
  H   H72       1.0  0.56043  0.32061  0.22407  1.0000
  H   H73       1.0  0.53269  0.36082  0.43838  1.0000
  H   H74       1.0  0.51634  0.31647  0.44694  1.0000
  H   H75       1.0  0.52992  0.42672  0.22823  1.0000
  H   H76       1.0  0.50739  0.44893  0.22645  1.0000
  H   H77       1.0  0.55197  0.49433  0.44000  1.0000
  H   H78       1.0  0.57416  0.47171  0.44271  1.0000
  H   H79       1.0  0.60399  0.46650  0.33006  1.0000
  H   H80       1.0  0.60497  0.39870  0.31877  1.0000
  H   H81       1.0  0.53591  0.39719  0.33644  1.0000
  C   C136      1.0  0.56652  0.17350  0.34737  1.0000
  C   C137      1.0  0.55366  0.14699  0.34186  1.0000
  C   C138      1.0  0.56694  0.13375  0.33307  1.0000
  C   C139      1.0  0.59354  0.14761  0.32716  1.0000
  C   C140      1.0  0.60682  0.17418  0.32826  1.0000
  C   C141      1.0  0.59300  0.18673  0.33958  1.0000
  C   C142      1.0  0.55382  0.10697  0.33101  1.0000
  C   C143      1.0  0.53361  0.09348  0.27133  1.0000
  C   C144      1.0  0.52081  0.06703  0.26892  1.0000
  C   C145      1.0  0.52740  0.05312  0.32740  1.0000
  C   C146      1.0  0.54761  0.06673  0.38727  1.0000
  C   C147      1.0  0.56071  0.09318  0.38862  1.0000
  C   C148      1.0  0.55367  0.18720  0.35908  1.0000
  C   C149      1.0  0.53567  0.18546  0.29647  1.0000
  C   C150      1.0  0.52680  0.20265  0.29865  1.0000
  C   C151      1.0  0.53548  0.22203  0.36356  1.0000
  C   C152      1.0  0.55209  0.22234  0.42995  1.0000
  C   C153      1.0  0.56114  0.20539  0.42748  1.0000
  C   C154      1.0  0.63353  0.18850  0.32094  1.0000
  C   C155      1.0  0.64495  0.20919  0.26178  1.0000
  C   C156      1.0  0.67097  0.22606  0.26450  1.0000
  C   C157      1.0  0.68649  0.22295  0.32698  1.0000
  C   C158      1.0  0.67532  0.20130  0.38196  1.0000
  C   C159      1.0  0.64923  0.18429  0.37897  1.0000
  H   H82       1.0  0.51462  0.20140  0.24971  1.0000
  H   H83       1.0  0.53023  0.17284  0.24498  1.0000
  H   H84       1.0  0.55941  0.23616  0.47745  1.0000
  H   H85       1.0  0.57430  0.20731  0.47359  1.0000
  H   H86       1.0  0.63420  0.21288  0.21891  1.0000
  H   H87       1.0  0.67810  0.24169  0.22467  1.0000
  H   H88       1.0  0.64158  0.16980  0.42389  1.0000
  H   H89       1.0  0.68594  0.19825  0.42741  1.0000
  H   H90       1.0  0.57515  0.10230  0.43314  1.0000
  H   H91       1.0  0.55346  0.05754  0.42931  1.0000
  H   H92       1.0  0.50626  0.05800  0.22476  1.0000
  H   H93       1.0  0.52828  0.10283  0.22790  1.0000
  H   H94       1.0  0.53447  0.13721  0.34840  1.0000
  H   H95       1.0  0.60244  0.20600  0.34250  1.0000
  H   H96       1.0  0.60332  0.13827  0.31867  1.0000
  C   C160      1.0  0.99005  0.49884  0.40541  1.0000
  H   H97       1.0  0.98281  0.49676  0.46821  1.0000
  N   N14       1.0  0.49565  0.51004  0.39426  1.0000
  C   C161      1.0  0.50865  0.49774  0.40525  1.0000
  H   H98       1.0  0.51379  0.49573  0.46815  1.0000
  N   N15       1.0  0.49645  0.98563  0.39105  1.0000
  C   C162      1.0  0.50953  0.01098  0.40040  1.0000
  H   H99       1.0  0.51513  0.01842  0.46274  1.0000
  C   C163      1.0  0.24241  0.53142  0.35137  1.0000
  C   C164      1.0  0.28778  0.53085  0.34091  1.0000
  N   N16       1.0  0.27401  0.52507  0.41731  1.0000
  C   C165      1.0  0.25157  0.52433  0.42645  1.0000
  N   N17       1.0  0.23864  0.51791  0.50909  1.0000
  O   O7        1.0  0.25151  0.51737  0.57349  1.0000
  O   O8        1.0  0.21983  0.49623  0.50295  1.0000
  C   C166      1.0  0.46974  0.71151  0.34676  1.0000
  C   C167      1.0  0.47030  0.75743  0.33605  1.0000
  N   N18       1.0  0.47629  0.74958  0.41230  1.0000
  C   C168      1.0  0.47706  0.72789  0.42150  1.0000
  N   N19       1.0  0.48366  0.72150  0.50402  1.0000
  O   O9        1.0  0.48437  0.73500  0.56833  1.0000
  O   O10       1.0  0.50531  0.72432  0.49730  1.0000
  C   C169      1.0  0.28943  0.75860  0.35028  1.0000
  C   C170      1.0  0.24353  0.71320  0.33856  1.0000
  N   N20       1.0  0.25139  0.72685  0.41523  1.0000
  C   C171      1.0  0.27308  0.74929  0.42501  1.0000
  N   N21       1.0  0.27946  0.76205  0.50796  1.0000
  O   O11       1.0  0.26596  0.74907  0.57198  1.0000
  O   O12       1.0  0.27662  0.78089  0.50218  1.0000
  C   C172      1.0  0.75810  0.46928  0.32384  1.0000
  C   C173      1.0  0.71287  0.47027  0.31300  1.0000
  N   N22       1.0  0.72168  0.46656  0.39147  1.0000
  C   C174      1.0  0.74368  0.46640  0.40149  1.0000
  N   N23       1.0  0.75002  0.46077  0.48540  1.0000
  O   O13       1.0  0.73312  0.43962  0.51229  1.0000
  O   O14       1.0  0.75241  0.47697  0.54168  1.0000
  C   C175      1.0  0.53129  0.28873  0.34960  1.0000
  C   C176      1.0  0.53052  0.24243  0.35811  1.0000
  N   N24       1.0  0.53389  0.25687  0.43144  1.0000
  C   C177      1.0  0.53393  0.27907  0.43237  1.0000
  N   N25       1.0  0.53947  0.29289  0.51246  1.0000
  O   O15       1.0  0.56063  0.29785  0.54188  1.0000
  O   O16       1.0  0.52324  0.28038  0.57060  1.0000
  C   C178      1.0  0.71178  0.24273  0.33871  1.0000
  C   C179      1.0  0.75781  0.28836  0.34952  1.0000
  N   N26       1.0  0.74406  0.27616  0.42293  1.0000
  C   C180      1.0  0.72200  0.25385  0.42256  1.0000
  N   N27       1.0  0.70882  0.24423  0.50324  1.0000
  O   O17       1.0  0.70383  0.25975  0.53888  1.0000
  O   O18       1.0  0.72191  0.23990  0.55687  1.0000
