data_image0
_chemical_formula_structural       C3NC3NC5NC5NC20H18N4C8H7CHC8H7CHC8H8C10H6C6H2C2H2C10H6C6H2C2H2
_chemical_formula_sum              "C98 N8 H62"
_cell_length_a       36.1952
_cell_length_b       26.5959
_cell_length_c       14.9383
_cell_angle_alpha    89.938
_cell_angle_beta     90.0456
_cell_angle_gamma    90.003

_space_group_name_H-M_alt    "P 1"
_space_group_IT_number       1

loop_
  _space_group_symop_operation_xyz
  'x, y, z'

loop_
  _atom_site_type_symbol
  _atom_site_label
  _atom_site_symmetry_multiplicity
  _atom_site_fract_x
  _atom_site_fract_y
  _atom_site_fract_z
  _atom_site_occupancy
  C   C1        1.0  0.00233  0.16025  0.30547  1.0000
  C   C2        1.0  0.96422  0.16072  0.30429  1.0000
  C   C3        1.0  0.95173  0.11100  0.30632  1.0000
  N   N1        1.0  0.98275  0.08236  0.30853  1.0000
  C   C4        1.0  0.01414  0.11024  0.30891  1.0000
  C   C5        1.0  0.05174  0.09458  0.31242  1.0000
  C   C6        1.0  0.06375  0.04374  0.31246  1.0000
  N   N2        1.0  0.04268  0.00184  0.30882  1.0000
  C   C7        1.0  0.06332  0.95950  0.31029  1.0000
  C   C8        1.0  0.10008  0.97527  0.31447  1.0000
  C   C9        1.0  0.10034  0.02717  0.31639  1.0000
  C   C10       1.0  0.05079  0.90892  0.30781  1.0000
  C   C11       1.0  0.01297  0.89418  0.30622  1.0000
  N   N3        1.0  0.98195  0.92281  0.30844  1.0000
  C   C12       1.0  0.95057  0.89493  0.30874  1.0000
  C   C13       1.0  0.96237  0.84493  0.30492  1.0000
  C   C14       1.0  0.00048  0.84446  0.30384  1.0000
  C   C15       1.0  0.91297  0.91059  0.31244  1.0000
  C   C16       1.0  0.90096  0.96142  0.31248  1.0000
  N   N4        1.0  0.92203  0.00332  0.30879  1.0000
  C   C17       1.0  0.90139  0.04567  0.31022  1.0000
  C   C18       1.0  0.86463  0.02989  0.31437  1.0000
  C   C19       1.0  0.86438  0.97798  0.31641  1.0000
  C   C20       1.0  0.91391  0.09624  0.30779  1.0000
  C   C21       1.0  0.88668  0.13501  0.31090  1.0000
  C   C22       1.0  0.83608  0.21703  0.32019  1.0000
  C   C23       1.0  0.85040  0.20091  0.23713  1.0000
  C   C24       1.0  0.87551  0.16051  0.23238  1.0000
  C   C25       1.0  0.88529  0.87246  0.31646  1.0000
  C   C26       1.0  0.83295  0.79262  0.32263  1.0000
  C   C27       1.0  0.83999  0.81856  0.24163  1.0000
  C   C28       1.0  0.86587  0.85803  0.23855  1.0000
  C   C29       1.0  0.07802  0.87015  0.31099  1.0000
  C   C30       1.0  0.08921  0.84481  0.23244  1.0000
  C   C31       1.0  0.11429  0.80438  0.23724  1.0000
  C   C32       1.0  0.12863  0.78813  0.32032  1.0000
  C   C33       1.0  0.07943  0.13269  0.31645  1.0000
  C   C34       1.0  0.09878  0.14725  0.23853  1.0000
  C   C35       1.0  0.13182  0.21246  0.32269  1.0000
  C   C36       1.0  0.12469  0.18667  0.24165  1.0000
  H   H1        1.0  0.13744  0.19735  0.18363  1.0000
  H   H2        1.0  0.09358  0.12992  0.17867  1.0000
  H   H3        1.0  0.01840  0.19184  0.30454  1.0000
  H   H4        1.0  0.94858  0.19270  0.30289  1.0000
  H   H5        1.0  0.98253  0.04633  0.31208  1.0000
  H   H6        1.0  0.98218  0.95881  0.31287  1.0000
  H   H7        1.0  0.12365  0.04876  0.31993  1.0000
  H   H8        1.0  0.12317  0.95316  0.31647  1.0000
  H   H9        1.0  0.07852  0.85491  0.17156  1.0000
  H   H10       1.0  0.12129  0.78596  0.17955  1.0000
  H   H11       1.0  0.01612  0.81248  0.30233  1.0000
  H   H12       1.0  0.94630  0.81334  0.30398  1.0000
  H   H13       1.0  0.84154  0.05199  0.31643  1.0000
  H   H14       1.0  0.84107  0.95639  0.31998  1.0000
  H   H15       1.0  0.87099  0.87548  0.17871  1.0000
  H   H16       1.0  0.82715  0.80803  0.18364  1.0000
  H   H17       1.0  0.88617  0.15049  0.17150  1.0000
  H   H18       1.0  0.84341  0.21944  0.17946  1.0000
  N   N5        1.0  0.81065  0.75297  0.32882  1.0000
  N   N6        1.0  0.15094  0.74809  0.32034  1.0000
  N   N7        1.0  0.15408  0.25214  0.32886  1.0000
  N   N8        1.0  0.81376  0.25705  0.32022  1.0000
  C   C37       1.0  0.23913  0.40487  0.32237  1.0000
  C   C38       1.0  0.23478  0.63297  0.29960  1.0000
  C   C39       1.0  0.21159  0.67531  0.30841  1.0000
  C   C40       1.0  0.20137  0.31071  0.29942  1.0000
  C   C41       1.0  0.23293  0.32296  0.24783  1.0000
  C   C42       1.0  0.25148  0.36903  0.25919  1.0000
  C   C43       1.0  0.37499  0.48013  0.28101  1.0000
  C   C44       1.0  0.41381  0.48372  0.28250  1.0000
  H   H19       1.0  0.21677  0.70629  0.26970  1.0000
  H   H20       1.0  0.27341  0.37688  0.21828  1.0000
  H   H21       1.0  0.24243  0.29873  0.19982  1.0000
  H   H22       1.0  0.36302  0.45725  0.23421  1.0000
  H   H23       1.0  0.42871  0.46330  0.23703  1.0000
  H   H24       1.0  0.20711  0.49470  0.33156  1.0000
  H   H25       1.0  0.25567  0.63412  0.25353  1.0000
  C   C45       1.0  0.18252  0.26585  0.28327  1.0000
  H   H26       1.0  0.19114  0.24376  0.23379  1.0000
  C   C46       1.0  0.72557  0.60029  0.32240  1.0000
  C   C47       1.0  0.72992  0.37221  0.29953  1.0000
  C   C48       1.0  0.75312  0.32987  0.30831  1.0000
  C   C49       1.0  0.76333  0.69447  0.29944  1.0000
  C   C50       1.0  0.73173  0.68229  0.24786  1.0000
  C   C51       1.0  0.71317  0.63622  0.25925  1.0000
  C   C52       1.0  0.58969  0.52503  0.28098  1.0000
  C   C53       1.0  0.55088  0.52146  0.28251  1.0000
  H   H27       1.0  0.74790  0.29893  0.26962  1.0000
  H   H28       1.0  0.69124  0.62840  0.21827  1.0000
  H   H29       1.0  0.72221  0.70656  0.19980  1.0000
  H   H30       1.0  0.60164  0.54801  0.23422  1.0000
  H   H31       1.0  0.53595  0.54194  0.23705  1.0000
  H   H32       1.0  0.75761  0.51045  0.33154  1.0000
  H   H33       1.0  0.70900  0.37113  0.25346  1.0000
  C   C54       1.0  0.78220  0.73931  0.28320  1.0000
  H   H34       1.0  0.77358  0.76142  0.23363  1.0000
  C   C55       1.0  0.87172  0.15013  0.39389  1.0000
  C   C56       1.0  0.84657  0.19038  0.39836  1.0000
  C   C57       1.0  0.87826  0.84668  0.39745  1.0000
  C   C58       1.0  0.85260  0.80695  0.40016  1.0000
  C   C59       1.0  0.11813  0.81463  0.39849  1.0000
  C   C60       1.0  0.09298  0.85488  0.39400  1.0000
  C   C61       1.0  0.08655  0.15831  0.39748  1.0000
  C   C62       1.0  0.11223  0.19803  0.40021  1.0000
  H   H35       1.0  0.11633  0.21666  0.45933  1.0000
  H   H36       1.0  0.07247  0.14898  0.45454  1.0000
  H   H37       1.0  0.08526  0.87252  0.45194  1.0000
  H   H38       1.0  0.12836  0.80457  0.45972  1.0000
  H   H39       1.0  0.89238  0.85594  0.45451  1.0000
  H   H40       1.0  0.84854  0.78823  0.45928  1.0000
  H   H41       1.0  0.83636  0.20035  0.45958  1.0000
  H   H42       1.0  0.87944  0.13240  0.45183  1.0000
  C   C63       1.0  0.22891  0.58915  0.35160  1.0000
  C   C64       1.0  0.35280  0.50871  0.34022  1.0000
  C   C65       1.0  0.18196  0.67537  0.37024  1.0000
  C   C66       1.0  0.17640  0.63178  0.42288  1.0000
  C   C67       1.0  0.19933  0.58947  0.41349  1.0000
  C   C68       1.0  0.20798  0.39229  0.37514  1.0000
  C   C69       1.0  0.18947  0.34617  0.36399  1.0000
  C   C70       1.0  0.43193  0.51575  0.34401  1.0000
  C   C71       1.0  0.40994  0.54457  0.40295  1.0000
  C   C72       1.0  0.37111  0.54094  0.40129  1.0000
  H   H43       1.0  0.15543  0.63026  0.46883  1.0000
  H   H44       1.0  0.19446  0.55897  0.45367  1.0000
  H   H45       1.0  0.19832  0.41679  0.42244  1.0000
  H   H46       1.0  0.16676  0.33922  0.40284  1.0000
  H   H47       1.0  0.42203  0.56848  0.44800  1.0000
  H   H48       1.0  0.35631  0.56182  0.44621  1.0000
  C   C73       1.0  0.31327  0.50514  0.33809  1.0000
  C   C74       1.0  0.29560  0.45774  0.33154  1.0000
  C   C75       1.0  0.25666  0.45292  0.33008  1.0000
  C   C76       1.0  0.23530  0.49733  0.33531  1.0000
  C   C77       1.0  0.25164  0.54546  0.34257  1.0000
  C   C78       1.0  0.29067  0.54859  0.34324  1.0000
  H   H49       1.0  0.31140  0.42581  0.33077  1.0000
  H   H50       1.0  0.30284  0.58322  0.34831  1.0000
  C   C79       1.0  0.47019  0.52170  0.34380  1.0000
  C   C80       1.0  0.15904  0.71670  0.38306  1.0000
  H   H51       1.0  0.47984  0.55674  0.34559  1.0000
  H   H52       1.0  0.14682  0.72038  0.44233  1.0000
  C   C81       1.0  0.73583  0.41596  0.35154  1.0000
  C   C82       1.0  0.61193  0.49640  0.34021  1.0000
  C   C83       1.0  0.78279  0.32972  0.37015  1.0000
  C   C84       1.0  0.78839  0.37325  0.42277  1.0000
  C   C85       1.0  0.76546  0.41557  0.41342  1.0000
  C   C86       1.0  0.75676  0.61280  0.37515  1.0000
  C   C87       1.0  0.77527  0.65893  0.36400  1.0000
  C   C88       1.0  0.53279  0.48935  0.34401  1.0000
  C   C89       1.0  0.55483  0.46046  0.40294  1.0000
  C   C90       1.0  0.59366  0.46410  0.40128  1.0000
  H   H53       1.0  0.80940  0.37471  0.46872  1.0000
  H   H54       1.0  0.77036  0.44602  0.45357  1.0000
  H   H55       1.0  0.76646  0.58823  0.42242  1.0000
  H   H56       1.0  0.79802  0.66581  0.40281  1.0000
  H   H57       1.0  0.54277  0.43649  0.44798  1.0000
  H   H58       1.0  0.60849  0.44316  0.44619  1.0000
  C   C91       1.0  0.65145  0.49998  0.33808  1.0000
  C   C92       1.0  0.66912  0.54739  0.33154  1.0000
  C   C93       1.0  0.70805  0.55222  0.33008  1.0000
  C   C94       1.0  0.72942  0.50780  0.33527  1.0000
  C   C95       1.0  0.71309  0.45966  0.34254  1.0000
  C   C96       1.0  0.67406  0.45653  0.34321  1.0000
  H   H59       1.0  0.65331  0.57932  0.33079  1.0000
  H   H60       1.0  0.66190  0.42189  0.34827  1.0000
  C   C97       1.0  0.49454  0.48341  0.34382  1.0000
  C   C98       1.0  0.80572  0.28837  0.38294  1.0000
  H   H61       1.0  0.48489  0.44836  0.34557  1.0000
  H   H62       1.0  0.81802  0.28464  0.44216  1.0000
