data_image0
_chemical_formula_structural       C4OC4OH4N2C4OC4OH4N2C4OC4OH4N2C2HC6H3CHC2HC6H3CHC2HC6H3CHC2HC6H3CHC2HC6H3CHC2HC6H3CHC2HC2HN2C2HC2HN2C2HC2HN2C2NC2NHCH3CHC2NC2NHCH3CHC2NC2NHCH3CHC2NC2NHCH3CHC2NC2NHCH3CHC2NC2NHCH3CH
_chemical_formula_sum              "C126 O6 H78 N24"
_cell_length_a       38.8425
_cell_length_b       38.8426
_cell_length_c       15.0132
_cell_angle_alpha    90
_cell_angle_beta     90
_cell_angle_gamma    120

_space_group_name_H-M_alt    "P 1"
_space_group_IT_number       1

loop_
  _space_group_symop_operation_xyz
  'x, y, z'

loop_
  _atom_site_type_symbol
  _atom_site_label
  _atom_site_symmetry_multiplicity
  _atom_site_fract_x
  _atom_site_fract_y
  _atom_site_fract_z
  _atom_site_occupancy
  C   C1        1.0  0.97774  0.48907  0.32005  1.0000
  C   C2        1.0  0.89250  0.44823  0.31567  1.0000
  C   C3        1.0  0.91274  0.42662  0.30915  1.0000
  C   C4        1.0  0.95458  0.44722  0.30691  1.0000
  O   O1        1.0  0.85194  0.42870  0.31318  1.0000
  C   C5        1.0  0.02097  0.50991  0.32015  1.0000
  C   C6        1.0  0.04414  0.55178  0.30724  1.0000
  C   C7        1.0  0.08599  0.57238  0.30979  1.0000
  C   C8        1.0  0.10622  0.55078  0.31633  1.0000
  O   O2        1.0  0.14679  0.57032  0.31410  1.0000
  H   H1        1.0  0.84454  0.42555  0.24981  1.0000
  H   H2        1.0  0.15427  0.57349  0.25079  1.0000
  H   H3        1.0  0.96774  0.43057  0.29549  1.0000
  H   H4        1.0  0.03099  0.56843  0.29580  1.0000
  N   N1        1.0  0.10602  0.61177  0.30380  1.0000
  N   N2        1.0  0.89269  0.38723  0.30312  1.0000
  C   C9        1.0  0.50983  0.48861  0.32129  1.0000
  C   C10       1.0  0.55065  0.44422  0.31633  1.0000
  C   C11       1.0  0.57226  0.48606  0.30991  1.0000
  C   C12       1.0  0.55166  0.50732  0.30795  1.0000
  O   O3        1.0  0.57019  0.42319  0.31369  1.0000
  C   C13       1.0  0.48903  0.51102  0.32199  1.0000
  C   C14       1.0  0.44722  0.49242  0.30847  1.0000
  C   C15       1.0  0.42660  0.51363  0.31209  1.0000
  C   C16       1.0  0.44818  0.55541  0.32034  1.0000
  O   O4        1.0  0.42864  0.57645  0.31904  1.0000
  H   H5        1.0  0.57320  0.41886  0.25030  1.0000
  H   H6        1.0  0.42575  0.58132  0.25594  1.0000
  H   H7        1.0  0.56828  0.53715  0.29668  1.0000
  H   H8        1.0  0.43064  0.46269  0.29592  1.0000
  N   N3        1.0  0.38723  0.49428  0.30549  1.0000
  N   N4        1.0  0.61164  0.50541  0.30376  1.0000
  C   C17       1.0  0.51049  0.02112  0.32001  1.0000
  C   C18       1.0  0.55495  0.10637  0.31579  1.0000
  C   C19       1.0  0.51311  0.08618  0.30933  1.0000
  C   C20       1.0  0.49183  0.04433  0.30701  1.0000
  O   O5        1.0  0.57603  0.14693  0.31334  1.0000
  C   C21       1.0  0.48806  0.97787  0.32007  1.0000
  C   C22       1.0  0.50671  0.95465  0.30725  1.0000
  C   C23       1.0  0.48543  0.91280  0.30970  1.0000
  C   C24       1.0  0.44358  0.89262  0.31607  1.0000
  O   O6        1.0  0.42248  0.85206  0.31366  1.0000
  H   H9        1.0  0.58027  0.15434  0.24998  1.0000
  H   H10       1.0  0.41825  0.84464  0.25030  1.0000
  H   H11       1.0  0.46202  0.03120  0.29565  1.0000
  H   H12       1.0  0.53652  0.96777  0.29593  1.0000
  N   N5        1.0  0.50474  0.89270  0.30380  1.0000
  N   N6        1.0  0.49380  0.10627  0.30336  1.0000
  C   C25       1.0  0.26874  0.47190  0.26094  1.0000
  C   C26       1.0  0.30847  0.48090  0.27141  1.0000
  H   H13       1.0  0.32795  0.49448  0.21985  1.0000
  C   C27       1.0  0.20414  0.45120  0.33047  1.0000
  C   C28       1.0  0.13086  0.44922  0.32991  1.0000
  C   C29       1.0  0.15428  0.45997  0.25174  1.0000
  C   C30       1.0  0.19129  0.46138  0.25118  1.0000
  C   C31       1.0  0.21659  0.47491  0.17620  1.0000
  C   C32       1.0  0.25509  0.48022  0.18112  1.0000
  H   H14       1.0  0.20795  0.48282  0.11900  1.0000
  H   H15       1.0  0.27359  0.49182  0.12733  1.0000
  H   H16       1.0  0.14550  0.46919  0.19662  1.0000
  C   C33       1.0  0.09870  0.45493  0.33578  1.0000
  H   H17       1.0  0.07160  0.43205  0.34597  1.0000
  C   C34       1.0  0.52716  0.79653  0.26006  1.0000
  C   C35       1.0  0.51817  0.82728  0.27017  1.0000
  H   H18       1.0  0.50503  0.83344  0.21811  1.0000
  C   C36       1.0  0.54726  0.75228  0.33029  1.0000
  C   C37       1.0  0.54990  0.68134  0.32907  1.0000
  C   C38       1.0  0.53966  0.69430  0.25064  1.0000
  C   C39       1.0  0.53796  0.72975  0.25038  1.0000
  C   C40       1.0  0.52499  0.74183  0.17496  1.0000
  C   C41       1.0  0.51952  0.77493  0.17985  1.0000
  H   H19       1.0  0.51778  0.72568  0.11722  1.0000
  H   H20       1.0  0.50852  0.78217  0.12551  1.0000
  H   H21       1.0  0.53110  0.67664  0.19497  1.0000
  C   C42       1.0  0.54427  0.64351  0.33405  1.0000
  H   H22       1.0  0.56737  0.63919  0.33205  1.0000
  C   C43       1.0  0.20230  0.73020  0.26062  1.0000
  C   C44       1.0  0.17152  0.69048  0.27068  1.0000
  H   H23       1.0  0.16566  0.67107  0.21898  1.0000
  C   C45       1.0  0.24615  0.79469  0.33067  1.0000
  C   C46       1.0  0.31742  0.86802  0.33060  1.0000
  C   C47       1.0  0.30480  0.84470  0.25228  1.0000
  C   C48       1.0  0.26922  0.80768  0.25146  1.0000
  C   C49       1.0  0.25755  0.78247  0.17633  1.0000
  C   C50       1.0  0.22436  0.74397  0.18093  1.0000
  H   H24       1.0  0.27408  0.79125  0.11911  1.0000
  H   H25       1.0  0.21743  0.72559  0.12691  1.0000
  H   H26       1.0  0.32284  0.85356  0.19721  1.0000
  C   C51       1.0  0.35531  0.90017  0.33677  1.0000
  H   H27       1.0  0.35953  0.92717  0.34853  1.0000
  C   C52       1.0  0.73007  0.52733  0.26068  1.0000
  C   C53       1.0  0.69037  0.51850  0.27061  1.0000
  H   H28       1.0  0.67096  0.50487  0.21897  1.0000
  C   C54       1.0  0.79449  0.54785  0.33091  1.0000
  C   C55       1.0  0.86770  0.54964  0.33123  1.0000
  C   C56       1.0  0.84440  0.53891  0.25287  1.0000
  C   C57       1.0  0.80743  0.53759  0.25188  1.0000
  C   C58       1.0  0.78225  0.52406  0.17671  1.0000
  C   C59       1.0  0.74381  0.51891  0.18112  1.0000
  H   H29       1.0  0.79098  0.51614  0.11964  1.0000
  H   H30       1.0  0.72541  0.50736  0.12716  1.0000
  H   H31       1.0  0.85323  0.52965  0.19791  1.0000
  C   C60       1.0  0.89986  0.54392  0.33751  1.0000
  H   H32       1.0  0.92679  0.56663  0.35008  1.0000
  C   C61       1.0  0.47179  0.20275  0.26027  1.0000
  C   C62       1.0  0.48068  0.17192  0.27019  1.0000
  H   H33       1.0  0.49408  0.16597  0.21833  1.0000
  C   C63       1.0  0.45140  0.24674  0.33060  1.0000
  C   C64       1.0  0.44924  0.31798  0.33045  1.0000
  C   C65       1.0  0.45984  0.30530  0.25207  1.0000
  C   C66       1.0  0.46131  0.26973  0.25128  1.0000
  C   C67       1.0  0.47465  0.25795  0.17598  1.0000
  C   C68       1.0  0.47992  0.22473  0.18051  1.0000
  H   H34       1.0  0.48226  0.27440  0.11865  1.0000
  H   H35       1.0  0.49122  0.21771  0.12633  1.0000
  H   H36       1.0  0.46885  0.32326  0.19688  1.0000
  C   C69       1.0  0.45489  0.35584  0.33642  1.0000
  H   H37       1.0  0.43201  0.36000  0.34701  1.0000
  C   C70       1.0  0.79635  0.26873  0.26040  1.0000
  C   C71       1.0  0.82714  0.30846  0.27028  1.0000
  H   H38       1.0  0.83299  0.32781  0.21845  1.0000
  C   C72       1.0  0.75248  0.20434  0.33080  1.0000
  C   C73       1.0  0.68113  0.13106  0.33116  1.0000
  C   C74       1.0  0.69371  0.15432  0.25274  1.0000
  C   C75       1.0  0.72934  0.19130  0.25170  1.0000
  C   C76       1.0  0.74099  0.21643  0.17642  1.0000
  C   C77       1.0  0.77426  0.25489  0.18077  1.0000
  H   H39       1.0  0.72440  0.20762  0.11929  1.0000
  H   H40       1.0  0.78111  0.27325  0.12672  1.0000
  H   H41       1.0  0.67566  0.14541  0.19770  1.0000
  C   C78       1.0  0.64324  0.09891  0.33743  1.0000
  H   H42       1.0  0.63901  0.07197  0.35001  1.0000
  C   C79       1.0  0.95599  0.50931  0.33218  1.0000
  C   C80       1.0  0.91410  0.48977  0.32733  1.0000
  H   H43       1.0  0.97039  0.53905  0.34456  1.0000
  C   C81       1.0  0.08461  0.50921  0.32748  1.0000
  C   C82       1.0  0.04271  0.48966  0.33221  1.0000
  H   H44       1.0  0.02830  0.45992  0.34445  1.0000
  N   N7        1.0  0.10544  0.49067  0.32797  1.0000
  N   N8        1.0  0.89327  0.50831  0.32786  1.0000
  C   C83       1.0  0.48957  0.44660  0.33312  1.0000
  C   C84       1.0  0.50910  0.42425  0.32796  1.0000
  H   H45       1.0  0.45984  0.43129  0.34566  1.0000
  C   C85       1.0  0.48975  0.57532  0.33162  1.0000
  C   C86       1.0  0.50928  0.55293  0.33542  1.0000
  H   H46       1.0  0.53897  0.56813  0.34842  1.0000
  N   N9        1.0  0.50823  0.61469  0.33343  1.0000
  N   N10       1.0  0.49059  0.38488  0.32836  1.0000
  C   C87       1.0  0.55248  0.04283  0.33206  1.0000
  C   C88       1.0  0.57486  0.08473  0.32731  1.0000
  H   H47       1.0  0.56780  0.02841  0.34431  1.0000
  C   C89       1.0  0.42367  0.91428  0.32730  1.0000
  C   C90       1.0  0.44606  0.95617  0.33207  1.0000
  H   H48       1.0  0.43074  0.97061  0.34424  1.0000
  N   N11       1.0  0.38430  0.89350  0.32779  1.0000
  N   N12       1.0  0.61423  0.10552  0.32781  1.0000
  C   C91       1.0  0.32246  0.47476  0.35377  1.0000
  C   C92       1.0  0.29454  0.45733  0.42455  1.0000
  N   N13       1.0  0.25668  0.44960  0.41199  1.0000
  C   C93       1.0  0.24277  0.45642  0.33504  1.0000
  C   C94       1.0  0.14436  0.43781  0.40543  1.0000
  N   N14       1.0  0.18019  0.43973  0.40347  1.0000
  H   H49       1.0  0.12892  0.43067  0.46410  1.0000
  C   C95       1.0  0.30306  0.44756  0.51436  1.0000
  H   H50       1.0  0.33271  0.45128  0.51987  1.0000
  H   H51       1.0  0.28171  0.41659  0.52990  1.0000
  H   H52       1.0  0.30016  0.46655  0.56381  1.0000
  C   C96       1.0  0.36309  0.49166  0.36741  1.0000
  H   H53       1.0  0.37413  0.50521  0.42541  1.0000
  C   C97       1.0  0.52364  0.84705  0.35279  1.0000
  C   C98       1.0  0.54049  0.83624  0.42425  1.0000
  N   N15       1.0  0.54821  0.80609  0.41200  1.0000
  C   C99       1.0  0.54196  0.78565  0.33479  1.0000
  C   C100      1.0  0.56016  0.70560  0.40550  1.0000
  N   N16       1.0  0.55806  0.73943  0.40374  1.0000
  H   H54       1.0  0.56678  0.69698  0.46438  1.0000
  C   C101      1.0  0.54968  0.85423  0.51437  1.0000
  H   H55       1.0  0.54599  0.88018  0.51975  1.0000
  H   H56       1.0  0.58053  0.86374  0.53096  1.0000
  H   H57       1.0  0.53034  0.83220  0.56320  1.0000
  C   C102      1.0  0.50682  0.87090  0.36580  1.0000
  H   H58       1.0  0.49284  0.86821  0.42327  1.0000
  C   C103      1.0  0.15135  0.67636  0.35293  1.0000
  C   C104      1.0  0.16176  0.70413  0.42398  1.0000
  N   N17       1.0  0.19192  0.74201  0.41176  1.0000
  C   C105      1.0  0.21274  0.75605  0.33495  1.0000
  C   C106      1.0  0.29246  0.85440  0.40602  1.0000
  N   N18       1.0  0.25856  0.81855  0.40382  1.0000
  H   H59       1.0  0.30070  0.86975  0.46480  1.0000
  C   C107      1.0  0.14334  0.69546  0.51366  1.0000
  H   H60       1.0  0.11745  0.66578  0.51893  1.0000
  H   H61       1.0  0.13365  0.71676  0.52925  1.0000
  H   H62       1.0  0.16518  0.69835  0.56324  1.0000
  C   C108      1.0  0.12745  0.63570  0.36611  1.0000
  H   H63       1.0  0.12999  0.62448  0.42384  1.0000
  C   C109      1.0  0.67625  0.52464  0.35277  1.0000
  C   C110      1.0  0.70402  0.54199  0.42384  1.0000
  N   N19       1.0  0.74187  0.54962  0.41174  1.0000
  C   C111      1.0  0.75590  0.54275  0.33503  1.0000
  C   C112      1.0  0.85413  0.56116  0.40647  1.0000
  N   N20       1.0  0.81834  0.55933  0.40409  1.0000
  H   H64       1.0  0.86949  0.56834  0.46525  1.0000
  C   C113      1.0  0.69533  0.55175  0.51349  1.0000
  H   H65       1.0  0.66568  0.54804  0.51865  1.0000
  H   H66       1.0  0.71667  0.58271  0.52915  1.0000
  H   H67       1.0  0.69813  0.53274  0.56308  1.0000
  C   C114      1.0  0.63559  0.50782  0.36594  1.0000
  H   H68       1.0  0.62438  0.49410  0.42371  1.0000
  C   C115      1.0  0.47479  0.15181  0.35249  1.0000
  C   C116      1.0  0.45762  0.16235  0.42375  1.0000
  N   N21       1.0  0.44996  0.19256  0.41166  1.0000
  C   C117      1.0  0.45660  0.21331  0.33480  1.0000
  C   C118      1.0  0.43819  0.29315  0.40608  1.0000
  N   N22       1.0  0.44012  0.25925  0.40388  1.0000
  H   H69       1.0  0.43111  0.30144  0.46486  1.0000
  C   C119      1.0  0.44807  0.14406  0.51357  1.0000
  H   H70       1.0  0.45178  0.11812  0.51878  1.0000
  H   H71       1.0  0.41715  0.13448  0.52958  1.0000
  H   H72       1.0  0.46720  0.16594  0.56288  1.0000
  C   C120      1.0  0.49152  0.12788  0.36555  1.0000
  H   H73       1.0  0.50537  0.13046  0.42315  1.0000
  C   C121      1.0  0.84737  0.32265  0.35245  1.0000
  C   C122      1.0  0.83698  0.29494  0.42363  1.0000
  N   N23       1.0  0.80679  0.25706  0.41160  1.0000
  C   C123      1.0  0.78593  0.24296  0.33486  1.0000
  C   C124      1.0  0.70617  0.14473  0.40647  1.0000
  N   N24       1.0  0.74009  0.18055  0.40406  1.0000
  H   H74       1.0  0.69796  0.12942  0.46531  1.0000
  C   C125      1.0  0.85542  0.30369  0.51328  1.0000
  H   H75       1.0  0.88135  0.33336  0.51839  1.0000
  H   H76       1.0  0.86507  0.28238  0.52905  1.0000
  H   H77       1.0  0.83361  0.30090  0.56283  1.0000
  C   C126      1.0  0.87123  0.36332  0.36544  1.0000
  H   H78       1.0  0.86879  0.37458  0.42321  1.0000
