data_image0
_chemical_formula_structural       C3NC3NC5NC5NC36H26N4H4C3NC3NC5NC5NC36H26N4H4C3NC3NC5NC5NC36H26N4H4C3H2C2HNO2CHC3H2C2HNO2CHC4H2C2HNO2CHC3H2C2HNO2CHC3H2C2HNO2CHC4H2C2HNO2CHC16H16C16H16C16H16C7H3NO2CH3C7H3NO2CH3C6H3NO2CH3C7H3NO2CH3C7H3NO2CH3C6H3NO2CH3
_chemical_formula_sum              "C288 N36 H198 O24"
_cell_length_a       75.0287
_cell_length_b       75.0288
_cell_length_c       15.0194
_cell_angle_alpha    89.6056
_cell_angle_beta     90.3944
_cell_angle_gamma    120

_space_group_name_H-M_alt    "P 1"
_space_group_IT_number       1

loop_
  _space_group_symop_operation_xyz
  'x, y, z'

loop_
  _atom_site_type_symbol
  _atom_site_label
  _atom_site_symmetry_multiplicity
  _atom_site_fract_x
  _atom_site_fract_y
  _atom_site_fract_z
  _atom_site_occupancy
  C   C1        1.0  0.03845  0.50315  0.28893  1.0000
  C   C2        1.0  0.01724  0.49205  0.29050  1.0000
  C   C3        1.0  0.01006  0.50575  0.30521  1.0000
  N   N1        1.0  0.02710  0.52462  0.31127  1.0000
  C   C4        1.0  0.04468  0.52385  0.30330  1.0000
  C   C5        1.0  0.06547  0.54002  0.30979  1.0000
  C   C6        1.0  0.07173  0.56120  0.31667  1.0000
  N   N2        1.0  0.05971  0.56984  0.31119  1.0000
  C   C7        1.0  0.07085  0.59052  0.31893  1.0000
  C   C8        1.0  0.09132  0.59547  0.32988  1.0000
  C   C9        1.0  0.09187  0.57737  0.32827  1.0000
  C   C10       1.0  0.06351  0.60463  0.31426  1.0000
  C   C11       1.0  0.04245  0.59895  0.30575  1.0000
  N   N3        1.0  0.02542  0.58006  0.31167  1.0000
  C   C12       1.0  0.00783  0.58085  0.30360  1.0000
  C   C13       1.0  0.01404  0.60158  0.28932  1.0000
  C   C14       1.0  0.03526  0.61268  0.29097  1.0000
  C   C15       1.0  0.98705  0.56468  0.31005  1.0000
  C   C16       1.0  0.98080  0.54348  0.31678  1.0000
  N   N4        1.0  0.99281  0.53485  0.31106  1.0000
  C   C17       1.0  0.98169  0.51416  0.31863  1.0000
  C   C18       1.0  0.96124  0.50918  0.32959  1.0000
  C   C19       1.0  0.96068  0.52729  0.32821  1.0000
  C   C20       1.0  0.98901  0.50005  0.31365  1.0000
  C   C21       1.0  0.97424  0.47869  0.31749  1.0000
  C   C22       1.0  0.94541  0.43567  0.32524  1.0000
  C   C23       1.0  0.94851  0.44699  0.24532  1.0000
  C   C24       1.0  0.96274  0.46821  0.24132  1.0000
  C   C25       1.0  0.93095  0.41412  0.32937  1.0000
  C   C26       1.0  0.92940  0.40077  0.25968  1.0000
  C   C27       1.0  0.91486  0.37963  0.26305  1.0000
  C   C28       1.0  0.90160  0.37124  0.33680  1.0000
  C   C29       1.0  0.97135  0.57003  0.30727  1.0000
  C   C30       1.0  0.94050  0.58146  0.29991  1.0000
  C   C31       1.0  0.94492  0.57320  0.22434  1.0000
  C   C32       1.0  0.96024  0.56766  0.22773  1.0000
  C   C33       1.0  0.92498  0.58703  0.29594  1.0000
  C   C34       1.0  0.89406  0.59837  0.28326  1.0000
  C   C35       1.0  0.88973  0.57843  0.25868  1.0000
  C   C36       1.0  0.90503  0.57289  0.26441  1.0000
  C   C37       1.0  0.07828  0.62598  0.31841  1.0000
  C   C38       1.0  0.08951  0.63671  0.24218  1.0000
  C   C39       1.0  0.10357  0.65796  0.24626  1.0000
  C   C40       1.0  0.10675  0.66907  0.32634  1.0000
  C   C41       1.0  0.12094  0.69068  0.33042  1.0000
  C   C42       1.0  0.14970  0.73371  0.33782  1.0000
  C   C43       1.0  0.13622  0.72528  0.26442  1.0000
  C   C44       1.0  0.12198  0.70407  0.26106  1.0000
  C   C45       1.0  0.08119  0.53469  0.30678  1.0000
  C   C46       1.0  0.09213  0.53727  0.22716  1.0000
  C   C47       1.0  0.11239  0.52378  0.29952  1.0000
  C   C48       1.0  0.10763  0.53197  0.22380  1.0000
  C   C49       1.0  0.12817  0.51859  0.29574  1.0000
  C   C50       1.0  0.14798  0.53304  0.26415  1.0000
  C   C51       1.0  0.16354  0.52788  0.25863  1.0000
  C   C52       1.0  0.15962  0.50804  0.28344  1.0000
  H   H1        1.0  0.17773  0.53862  0.23550  1.0000
  H   H2        1.0  0.15131  0.54754  0.24554  1.0000
  H   H3        1.0  0.11521  0.53387  0.16499  1.0000
  H   H4        1.0  0.08889  0.54300  0.17116  1.0000
  H   H5        1.0  0.04763  0.49683  0.28032  1.0000
  H   H6        1.0  0.00866  0.47645  0.28267  1.0000
  H   H7        1.0  0.02678  0.53682  0.32800  1.0000
  H   H8        1.0  0.02576  0.56783  0.32847  1.0000
  H   H9        1.0  0.10493  0.57638  0.33482  1.0000
  H   H10       1.0  0.10391  0.60979  0.33740  1.0000
  H   H11       1.0  0.08746  0.62913  0.18320  1.0000
  H   H12       1.0  0.11167  0.66521  0.19008  1.0000
  H   H13       1.0  0.04383  0.62829  0.28314  1.0000
  H   H14       1.0  0.00485  0.60792  0.28048  1.0000
  H   H15       1.0  0.94865  0.49484  0.33694  1.0000
  H   H16       1.0  0.94764  0.52826  0.33481  1.0000
  H   H17       1.0  0.96329  0.56194  0.17175  1.0000
  H   H18       1.0  0.93725  0.57148  0.16553  1.0000
  H   H19       1.0  0.90139  0.55833  0.24605  1.0000
  H   H20       1.0  0.87542  0.56791  0.23568  1.0000
  H   H21       1.0  0.96468  0.47595  0.18252  1.0000
  H   H22       1.0  0.94018  0.43995  0.18926  1.0000
  H   H23       1.0  0.91393  0.37036  0.21149  1.0000
  H   H24       1.0  0.93895  0.40629  0.20577  1.0000
  H   H25       1.0  0.11225  0.69852  0.20743  1.0000
  H   H26       1.0  0.13679  0.73458  0.21310  1.0000
  N   N5        1.0  0.88613  0.35029  0.34144  1.0000
  N   N6        1.0  0.16490  0.75475  0.34237  1.0000
  N   N7        1.0  0.17479  0.50215  0.27499  1.0000
  N   N8        1.0  0.87914  0.60463  0.27477  1.0000
  H   H27       1.0  0.86898  0.59627  0.22486  1.0000
  H   H28       1.0  0.15827  0.76358  0.32864  1.0000
  H   H29       1.0  0.18465  0.51055  0.22442  1.0000
  H   H30       1.0  0.89245  0.34125  0.32699  1.0000
  C   C53       1.0  0.57727  0.61731  0.29483  1.0000
  C   C54       1.0  0.58838  0.60720  0.29652  1.0000
  C   C55       1.0  0.57468  0.58629  0.31113  1.0000
  N   N9        1.0  0.55581  0.58443  0.31705  1.0000
  C   C56       1.0  0.55657  0.60280  0.30902  1.0000
  C   C57       1.0  0.54040  0.60740  0.31550  1.0000
  C   C58       1.0  0.51922  0.59246  0.32246  1.0000
  N   N10       1.0  0.51058  0.57182  0.31705  1.0000
  C   C59       1.0  0.48990  0.56225  0.32475  1.0000
  C   C60       1.0  0.48494  0.57773  0.33558  1.0000
  C   C61       1.0  0.50304  0.59640  0.33387  1.0000
  C   C62       1.0  0.47579  0.54081  0.32024  1.0000
  C   C63       1.0  0.48147  0.52544  0.31196  1.0000
  N   N11       1.0  0.50035  0.52727  0.31775  1.0000
  C   C64       1.0  0.49957  0.50892  0.30963  1.0000
  C   C65       1.0  0.47883  0.49443  0.29581  1.0000
  C   C66       1.0  0.46773  0.50454  0.29755  1.0000
  C   C67       1.0  0.51576  0.50432  0.31566  1.0000
  C   C68       1.0  0.53696  0.51925  0.32222  1.0000
  N   N12       1.0  0.54558  0.53990  0.31671  1.0000
  C   C69       1.0  0.56628  0.54946  0.32426  1.0000
  C   C70       1.0  0.57126  0.53396  0.33508  1.0000
  C   C71       1.0  0.55316  0.51530  0.33355  1.0000
  C   C72       1.0  0.58038  0.57091  0.31956  1.0000
  C   C73       1.0  0.60174  0.57750  0.32370  1.0000
  C   C74       1.0  0.64475  0.59165  0.33212  1.0000
  C   C75       1.0  0.63349  0.58367  0.25205  1.0000
  C   C76       1.0  0.61228  0.57670  0.24771  1.0000
  C   C77       1.0  0.66630  0.59871  0.33659  1.0000
  C   C78       1.0  0.67970  0.61071  0.26707  1.0000
  C   C79       1.0  0.70083  0.61723  0.27065  1.0000
  C   C80       1.0  0.70915  0.61208  0.34444  1.0000
  C   C81       1.0  0.51042  0.48327  0.31286  1.0000
  C   C82       1.0  0.49899  0.44101  0.30551  1.0000
  C   C83       1.0  0.50722  0.45389  0.22990  1.0000
  C   C84       1.0  0.51276  0.47475  0.23329  1.0000
  C   C85       1.0  0.49342  0.41993  0.30155  1.0000
  C   C86       1.0  0.48208  0.37771  0.28889  1.0000
  C   C87       1.0  0.50200  0.39338  0.26416  1.0000
  C   C88       1.0  0.50756  0.41421  0.26990  1.0000
  C   C89       1.0  0.45444  0.53420  0.32464  1.0000
  C   C90       1.0  0.44366  0.53489  0.24854  1.0000
  C   C91       1.0  0.42241  0.52769  0.25292  1.0000
  C   C92       1.0  0.41136  0.51959  0.33317  1.0000
  C   C93       1.0  0.38976  0.51220  0.33757  1.0000
  C   C94       1.0  0.34676  0.49804  0.34539  1.0000
  C   C95       1.0  0.35511  0.49309  0.27200  1.0000
  C   C96       1.0  0.37631  0.50001  0.26842  1.0000
  C   C97       1.0  0.54571  0.62845  0.31246  1.0000
  C   C98       1.0  0.54316  0.63703  0.23281  1.0000
  C   C99       1.0  0.55662  0.67058  0.30514  1.0000
  C   C100      1.0  0.54845  0.65784  0.22941  1.0000
  C   C101      1.0  0.56181  0.69156  0.30133  1.0000
  C   C102      1.0  0.54736  0.69699  0.26967  1.0000
  C   C103      1.0  0.55252  0.71773  0.26413  1.0000
  C   C104      1.0  0.57236  0.73360  0.28900  1.0000
  H   H31       1.0  0.54178  0.72125  0.24097  1.0000
  H   H32       1.0  0.53286  0.68588  0.25105  1.0000
  H   H33       1.0  0.54655  0.66367  0.17059  1.0000
  H   H34       1.0  0.53743  0.62821  0.17680  1.0000
  H   H35       1.0  0.58359  0.63284  0.28629  1.0000
  H   H36       1.0  0.60398  0.61425  0.28881  1.0000
  H   H37       1.0  0.54360  0.57187  0.33370  1.0000
  H   H38       1.0  0.51262  0.53986  0.33351  1.0000
  H   H39       1.0  0.50402  0.61041  0.34024  1.0000
  H   H40       1.0  0.47061  0.57598  0.34291  1.0000
  H   H41       1.0  0.45119  0.54053  0.18944  1.0000
  H   H42       1.0  0.41512  0.52867  0.19683  1.0000
  H   H43       1.0  0.45211  0.49752  0.28982  1.0000
  H   H44       1.0  0.47249  0.47893  0.28694  1.0000
  H   H45       1.0  0.58560  0.53570  0.34247  1.0000
  H   H46       1.0  0.55220  0.50127  0.34009  1.0000
  H   H47       1.0  0.51844  0.48366  0.17726  1.0000
  H   H48       1.0  0.50891  0.44810  0.17104  1.0000
  H   H49       1.0  0.52210  0.42518  0.25140  1.0000
  H   H50       1.0  0.51252  0.38966  0.24106  1.0000
  H   H51       1.0  0.60458  0.57107  0.18881  1.0000
  H   H52       1.0  0.64058  0.58255  0.19611  1.0000
  H   H53       1.0  0.71014  0.62569  0.21915  1.0000
  H   H54       1.0  0.67423  0.61492  0.21309  1.0000
  H   H55       1.0  0.38181  0.49593  0.21477  1.0000
  H   H56       1.0  0.34577  0.48450  0.22078  1.0000
  N   N13       1.0  0.73007  0.61743  0.34911  1.0000
  N   N14       1.0  0.32574  0.49229  0.34997  1.0000
  N   N15       1.0  0.57824  0.75467  0.28057  1.0000
  N   N16       1.0  0.47581  0.35655  0.28039  1.0000
  H   H57       1.0  0.48418  0.35489  0.23056  1.0000
  H   H58       1.0  0.31685  0.47687  0.33632  1.0000
  H   H59       1.0  0.56982  0.75627  0.23006  1.0000
  H   H60       1.0  0.73917  0.63281  0.33464  1.0000
  C   C105      1.0  0.46308  0.04188  0.30202  1.0000
  C   C106      1.0  0.47317  0.06309  0.30385  1.0000
  C   C107      1.0  0.49409  0.07028  0.31848  1.0000
  N   N17       1.0  0.49596  0.05326  0.32456  1.0000
  C   C108      1.0  0.47761  0.03566  0.31612  1.0000
  C   C109      1.0  0.47304  0.01488  0.32215  1.0000
  C   C110      1.0  0.48800  0.00864  0.32932  1.0000
  N   N18       1.0  0.50864  0.02069  0.32417  1.0000
  C   C111      1.0  0.51823  0.00958  0.33202  1.0000
  C   C112      1.0  0.50276  0.98909  0.34268  1.0000
  C   C113      1.0  0.48408  0.98851  0.34064  1.0000
  C   C114      1.0  0.53967  0.01694  0.32735  1.0000
  C   C115      1.0  0.55501  0.03800  0.31856  1.0000
  N   N19       1.0  0.55315  0.05502  0.32436  1.0000
  C   C116      1.0  0.57149  0.07262  0.31588  1.0000
  C   C117      1.0  0.58597  0.06642  0.30145  1.0000
  C   C118      1.0  0.57588  0.04521  0.30361  1.0000
  C   C119      1.0  0.57608  0.09340  0.32198  1.0000
  C   C120      1.0  0.56114  0.09962  0.32887  1.0000
  N   N20       1.0  0.54049  0.08759  0.32361  1.0000
  C   C121      1.0  0.53092  0.09870  0.33123  1.0000
  C   C122      1.0  0.54641  0.11916  0.34194  1.0000
  C   C123      1.0  0.56508  0.11974  0.34022  1.0000
  C   C124      1.0  0.50946  0.09134  0.32668  1.0000
  C   C125      1.0  0.50287  0.10611  0.33059  1.0000
  C   C126      1.0  0.48872  0.13495  0.33855  1.0000
  C   C127      1.0  0.49672  0.13187  0.25860  1.0000
  C   C128      1.0  0.50369  0.11762  0.25449  1.0000
  C   C129      1.0  0.48168  0.14944  0.34280  1.0000
  C   C130      1.0  0.46970  0.15103  0.27313  1.0000
  C   C131      1.0  0.46318  0.16562  0.27651  1.0000
  C   C132      1.0  0.46831  0.17890  0.35024  1.0000
  C   C133      1.0  0.59712  0.10913  0.31830  1.0000
  C   C134      1.0  0.63934  0.13999  0.30891  1.0000
  C   C135      1.0  0.62626  0.13548  0.23398  1.0000
  C   C136      1.0  0.60541  0.12014  0.23837  1.0000
  C   C137      1.0  0.66041  0.15547  0.30382  1.0000
  C   C138      1.0  0.70261  0.18627  0.28820  1.0000
  C   C139      1.0  0.68690  0.19066  0.26521  1.0000
  C   C140      1.0  0.66607  0.17541  0.27231  1.0000
  C   C141      1.0  0.54629  0.00219  0.33156  1.0000
  C   C142      1.0  0.54558  0.99094  0.25539  1.0000
  C   C143      1.0  0.55278  0.97688  0.25957  1.0000
  C   C144      1.0  0.56092  0.97370  0.33969  1.0000
  C   C145      1.0  0.56831  0.95949  0.34390  1.0000
  C   C146      1.0  0.58244  0.93060  0.35130  1.0000
  C   C147      1.0  0.58736  0.94410  0.27794  1.0000
  C   C148      1.0  0.58046  0.95841  0.27457  1.0000
  C   C149      1.0  0.45201  0.99913  0.31811  1.0000
  C   C150      1.0  0.44365  0.98833  0.23798  1.0000
  C   C151      1.0  0.40992  0.96792  0.30852  1.0000
  C   C152      1.0  0.42287  0.97282  0.23348  1.0000
  C   C153      1.0  0.38894  0.95217  0.30348  1.0000
  C   C154      1.0  0.38358  0.93240  0.27166  1.0000
  C   C155      1.0  0.36284  0.91689  0.26467  1.0000
  C   C156      1.0  0.34692  0.92083  0.28814  1.0000
  H   H61       1.0  0.35937  0.90272  0.24138  1.0000
  H   H62       1.0  0.39474  0.92906  0.25392  1.0000
  H   H63       1.0  0.41720  0.96535  0.17431  1.0000
  H   H64       1.0  0.45263  0.99168  0.18242  1.0000
  H   H65       1.0  0.44757  0.03269  0.29302  1.0000
  H   H66       1.0  0.46613  0.07166  0.29589  1.0000
  H   H67       1.0  0.50857  0.05360  0.34047  1.0000
  H   H68       1.0  0.54063  0.05467  0.34126  1.0000
  H   H69       1.0  0.47007  0.97544  0.34684  1.0000
  H   H70       1.0  0.50452  0.97650  0.34991  1.0000
  H   H71       1.0  0.53990  0.99298  0.19638  1.0000
  H   H72       1.0  0.55176  0.96876  0.20344  1.0000
  H   H73       1.0  0.58292  0.03665  0.29580  1.0000
  H   H74       1.0  0.60147  0.07561  0.29251  1.0000
  H   H75       1.0  0.54467  0.13173  0.34935  1.0000
  H   H76       1.0  0.57911  0.13279  0.34660  1.0000
  H   H77       1.0  0.59636  0.11701  0.18280  1.0000
  H   H78       1.0  0.63189  0.14307  0.17489  1.0000
  H   H79       1.0  0.65507  0.17907  0.25489  1.0000
  H   H80       1.0  0.69058  0.20495  0.24215  1.0000
  H   H81       1.0  0.50933  0.11570  0.19567  1.0000
  H   H82       1.0  0.49785  0.14020  0.20257  1.0000
  H   H83       1.0  0.45473  0.16660  0.22493  1.0000
  H   H84       1.0  0.46550  0.14148  0.21921  1.0000
  H   H85       1.0  0.58451  0.96813  0.22093  1.0000
  H   H86       1.0  0.59592  0.94349  0.22660  1.0000
  N   N21       1.0  0.46295  0.19445  0.35475  1.0000
  N   N22       1.0  0.58818  0.91531  0.35571  1.0000
  N   N23       1.0  0.32587  0.90574  0.27808  1.0000
  N   N24       1.0  0.72374  0.20109  0.27808  1.0000
  H   H87       1.0  0.72525  0.21098  0.22720  1.0000
  H   H88       1.0  0.60360  0.92187  0.34192  1.0000
  H   H89       1.0  0.32443  0.89609  0.22679  1.0000
  H   H90       1.0  0.44757  0.18820  0.34020  1.0000
  C   C157      1.0  0.29924  0.50207  0.30529  1.0000
  C   C158      1.0  0.27456  0.51334  0.26694  1.0000
  C   C159      1.0  0.29375  0.51468  0.25543  1.0000
  H   H91       1.0  0.27124  0.52293  0.23062  1.0000
  H   H92       1.0  0.30387  0.52518  0.21075  1.0000
  C   C160      1.0  0.20866  0.49315  0.27349  1.0000
  C   C161      1.0  0.22678  0.49192  0.26566  1.0000
  H   H93       1.0  0.19890  0.48890  0.22007  1.0000
  N   N25       1.0  0.23115  0.48490  0.18576  1.0000
  O   O1        1.0  0.21756  0.46672  0.16845  1.0000
  O   O2        1.0  0.23270  0.49619  0.12060  1.0000
  C   C162      1.0  0.32000  0.50461  0.29074  1.0000
  H   H94       1.0  0.32097  0.50090  0.22121  1.0000
  C   C163      1.0  0.57836  0.87914  0.31102  1.0000
  C   C164      1.0  0.56707  0.84329  0.27264  1.0000
  C   C165      1.0  0.56574  0.86119  0.26118  1.0000
  H   H95       1.0  0.55747  0.83049  0.23634  1.0000
  H   H96       1.0  0.55523  0.86093  0.21654  1.0000
  C   C166      1.0  0.58725  0.79755  0.27906  1.0000
  C   C167      1.0  0.58848  0.81692  0.27124  1.0000
  H   H97       1.0  0.59149  0.79218  0.22562  1.0000
  N   N26       1.0  0.59548  0.82853  0.19132  1.0000
  O   O3        1.0  0.61366  0.83316  0.17394  1.0000
  O   O4        1.0  0.58418  0.81896  0.12619  1.0000
  C   C168      1.0  0.57584  0.89741  0.29652  1.0000
  H   H98       1.0  0.57952  0.90228  0.22697  1.0000
  C   C169      1.0  0.20109  0.78134  0.29880  1.0000
  C   C170      1.0  0.23728  0.82037  0.32357  1.0000
  C   C171      1.0  0.23704  0.80607  0.26222  1.0000
  C   C172      1.0  0.21915  0.78692  0.24957  1.0000
  H   H99       1.0  0.24993  0.80944  0.22646  1.0000
  H   H100      1.0  0.21951  0.77690  0.20468  1.0000
  C   C173      1.0  0.28298  0.87189  0.27307  1.0000
  C   C174      1.0  0.26361  0.85385  0.26369  1.0000
  H   H101      1.0  0.28858  0.88180  0.22022  1.0000
  N   N27       1.0  0.25229  0.84974  0.18307  1.0000
  O   O5        1.0  0.24778  0.86344  0.16590  1.0000
  O   O6        1.0  0.26205  0.84834  0.11838  1.0000
  C   C175      1.0  0.18286  0.76061  0.28338  1.0000
  H   H102      1.0  0.17806  0.75976  0.21380  1.0000
  C   C176      1.0  0.75598  0.60697  0.30548  1.0000
  C   C177      1.0  0.78013  0.59514  0.26788  1.0000
  C   C178      1.0  0.76105  0.59411  0.25634  1.0000
  H   H103      1.0  0.78315  0.58539  0.23205  1.0000
  H   H104      1.0  0.75071  0.58367  0.21215  1.0000
  C   C179      1.0  0.84585  0.61447  0.27340  1.0000
  C   C180      1.0  0.82788  0.61600  0.26559  1.0000
  H   H105      1.0  0.85543  0.61856  0.21977  1.0000
  N   N28       1.0  0.82341  0.62314  0.18547  1.0000
  O   O7        1.0  0.83714  0.64125  0.16750  1.0000
  O   O8        1.0  0.82150  0.61178  0.12070  1.0000
  C   C181      1.0  0.73534  0.60480  0.29083  1.0000
  H   H106      1.0  0.73424  0.60846  0.22104  1.0000
  C   C182      1.0  0.47342  0.23095  0.31109  1.0000
  C   C183      1.0  0.48527  0.26704  0.27351  1.0000
  C   C184      1.0  0.48629  0.24901  0.26198  1.0000
  H   H107      1.0  0.49503  0.27990  0.23767  1.0000
  H   H108      1.0  0.49673  0.24923  0.21776  1.0000
  C   C185      1.0  0.46596  0.31343  0.27902  1.0000
  C   C186      1.0  0.46441  0.29393  0.27123  1.0000
  H   H109      1.0  0.46185  0.31905  0.22543  1.0000
  N   N29       1.0  0.45726  0.28255  0.19112  1.0000
  O   O9        1.0  0.43916  0.27822  0.17318  1.0000
  O   O10       1.0  0.46862  0.29217  0.12633  1.0000
  C   C187      1.0  0.47559  0.21251  0.29646  1.0000
  H   H110      1.0  0.47194  0.20795  0.22667  1.0000
  C   C188      1.0  0.84961  0.32426  0.29889  1.0000
  C   C189      1.0  0.81315  0.28547  0.32383  1.0000
  C   C190      1.0  0.81344  0.30006  0.26306  1.0000
  C   C191      1.0  0.83146  0.31909  0.25034  1.0000
  H   H111      1.0  0.80049  0.29698  0.22773  1.0000
  H   H112      1.0  0.83114  0.32933  0.20582  1.0000
  C   C192      1.0  0.76685  0.23442  0.27308  1.0000
  C   C193      1.0  0.78634  0.25232  0.26371  1.0000
  H   H113      1.0  0.76101  0.22467  0.22009  1.0000
  N   N30       1.0  0.79744  0.25649  0.18292  1.0000
  O   O11       1.0  0.80164  0.24266  0.16522  1.0000
  O   O12       1.0  0.78762  0.25824  0.11854  1.0000
  C   C194      1.0  0.86801  0.34489  0.28332  1.0000
  H   H114      1.0  0.87251  0.34584  0.21350  1.0000
  C   C195      1.0  0.97128  0.46760  0.39750  1.0000
  C   C196      1.0  0.95706  0.44639  0.40118  1.0000
  C   C197      1.0  0.90321  0.38428  0.40711  1.0000
  C   C198      1.0  0.91761  0.40545  0.40321  1.0000
  C   C199      1.0  0.96699  0.57822  0.38304  1.0000
  C   C200      1.0  0.95180  0.58397  0.37919  1.0000
  C   C201      1.0  0.92918  0.60688  0.32168  1.0000
  C   C202      1.0  0.91395  0.61253  0.31451  1.0000
  C   C203      1.0  0.09542  0.65809  0.40241  1.0000
  C   C204      1.0  0.08135  0.63685  0.39861  1.0000
  C   C205      1.0  0.13449  0.69938  0.40393  1.0000
  C   C206      1.0  0.14859  0.72062  0.40784  1.0000
  C   C207      1.0  0.08585  0.52653  0.38264  1.0000
  C   C208      1.0  0.10122  0.52103  0.37883  1.0000
  C   C209      1.0  0.13989  0.49357  0.31478  1.0000
  C   C210      1.0  0.12440  0.49884  0.32187  1.0000
  H   H115      1.0  0.13670  0.47907  0.33236  1.0000
  H   H116      1.0  0.11014  0.48792  0.34367  1.0000
  H   H117      1.0  0.10445  0.51537  0.43507  1.0000
  H   H118      1.0  0.07810  0.52455  0.44104  1.0000
  H   H119      1.0  0.07322  0.62942  0.45453  1.0000
  H   H120      1.0  0.09692  0.66556  0.46116  1.0000
  H   H121      1.0  0.97488  0.58010  0.44133  1.0000
  H   H122      1.0  0.94882  0.58969  0.43531  1.0000
  H   H123      1.0  0.91744  0.62709  0.33192  1.0000
  H   H124      1.0  0.94355  0.61759  0.34351  1.0000
  H   H125      1.0  0.91787  0.41457  0.45413  1.0000
  H   H126      1.0  0.89351  0.37851  0.46043  1.0000
  H   H127      1.0  0.95559  0.43876  0.45985  1.0000
  H   H128      1.0  0.97957  0.47485  0.45341  1.0000
  H   H129      1.0  0.13458  0.69024  0.45464  1.0000
  H   H130      1.0  0.15846  0.72643  0.46089  1.0000
  C   C211      1.0  0.61277  0.58539  0.40386  1.0000
  C   C212      1.0  0.63398  0.59236  0.40787  1.0000
  C   C213      1.0  0.69605  0.60049  0.41467  1.0000
  C   C214      1.0  0.67489  0.59377  0.41052  1.0000
  C   C215      1.0  0.50227  0.47053  0.38869  1.0000
  C   C216      1.0  0.49653  0.44959  0.38485  1.0000
  C   C217      1.0  0.47359  0.40422  0.32748  1.0000
  C   C218      1.0  0.46792  0.38335  0.32026  1.0000
  C   C219      1.0  0.42239  0.51905  0.40910  1.0000
  C   C220      1.0  0.44363  0.52624  0.40502  1.0000
  C   C221      1.0  0.38114  0.51692  0.41111  1.0000
  C   C222      1.0  0.35991  0.50984  0.41521  1.0000
  C   C223      1.0  0.55386  0.64106  0.38832  1.0000
  C   C224      1.0  0.55935  0.66194  0.38450  1.0000
  C   C225      1.0  0.58682  0.72825  0.32042  1.0000
  C   C226      1.0  0.58155  0.70746  0.32747  1.0000
  H   H131      1.0  0.60131  0.73951  0.33807  1.0000
  H   H132      1.0  0.59247  0.70407  0.34941  1.0000
  H   H133      1.0  0.56500  0.67068  0.44073  1.0000
  H   H134      1.0  0.55583  0.63514  0.44676  1.0000
  H   H135      1.0  0.45110  0.52542  0.46086  1.0000
  H   H136      1.0  0.41496  0.51298  0.46799  1.0000
  H   H137      1.0  0.50042  0.47638  0.44702  1.0000
  H   H138      1.0  0.49082  0.44075  0.44098  1.0000
  H   H139      1.0  0.45337  0.37224  0.33773  1.0000
  H   H140      1.0  0.46288  0.40783  0.34929  1.0000
  H   H141      1.0  0.66573  0.58476  0.46133  1.0000
  H   H142      1.0  0.70176  0.59633  0.46795  1.0000
  H   H143      1.0  0.64156  0.59835  0.46665  1.0000
  H   H144      1.0  0.60548  0.58626  0.45964  1.0000
  H   H145      1.0  0.39032  0.52603  0.46168  1.0000
  H   H146      1.0  0.35416  0.51382  0.46826  1.0000
  C   C227      1.0  0.49496  0.10905  0.41064  1.0000
  C   C228      1.0  0.48799  0.12329  0.41443  1.0000
  C   C229      1.0  0.47989  0.17723  0.42056  1.0000
  C   C230      1.0  0.48660  0.16278  0.41664  1.0000
  C   C231      1.0  0.61007  0.11359  0.39346  1.0000
  C   C232      1.0  0.63098  0.12879  0.38860  1.0000
  C   C233      1.0  0.67617  0.15122  0.32815  1.0000
  C   C234      1.0  0.69703  0.16639  0.31947  1.0000
  C   C235      1.0  0.56150  0.98507  0.41569  1.0000
  C   C236      1.0  0.55432  0.99913  0.41180  1.0000
  C   C237      1.0  0.56363  0.94594  0.41743  1.0000
  C   C238      1.0  0.57070  0.93178  0.42134  1.0000
  C   C239      1.0  0.43918  0.99431  0.39332  1.0000
  C   C240      1.0  0.41832  0.97895  0.38835  1.0000
  C   C241      1.0  0.35221  0.94053  0.31974  1.0000
  C   C242      1.0  0.37298  0.95596  0.32830  1.0000
  H   H147      1.0  0.34090  0.94373  0.33640  1.0000
  H   H148      1.0  0.37633  0.97020  0.35029  1.0000
  H   H149      1.0  0.40942  0.97561  0.44411  1.0000
  H   H150      1.0  0.44494  0.00196  0.45206  1.0000
  H   H151      1.0  0.55515  0.00727  0.46769  1.0000
  H   H152      1.0  0.56760  0.98355  0.47450  1.0000
  H   H153      1.0  0.60437  0.10576  0.45202  1.0000
  H   H154      1.0  0.63999  0.13183  0.44425  1.0000
  H   H155      1.0  0.70817  0.16286  0.33578  1.0000
  H   H156      1.0  0.67260  0.13685  0.34986  1.0000
  H   H157      1.0  0.49558  0.16249  0.46755  1.0000
  H   H158      1.0  0.48402  0.18695  0.47384  1.0000
  H   H159      1.0  0.48199  0.12473  0.47311  1.0000
  H   H160      1.0  0.49407  0.10075  0.46650  1.0000
  H   H161      1.0  0.55453  0.94586  0.46806  1.0000
  H   H162      1.0  0.56672  0.92187  0.47430  1.0000
  C   C243      1.0  0.28480  0.48796  0.36696  1.0000
  C   C244      1.0  0.26545  0.48641  0.37780  1.0000
  C   C245      1.0  0.26012  0.49908  0.32781  1.0000
  C   C246      1.0  0.24075  0.49794  0.33849  1.0000
  C   C247      1.0  0.23598  0.50432  0.41938  1.0000
  C   C248      1.0  0.21779  0.50552  0.42458  1.0000
  C   C249      1.0  0.20429  0.50071  0.35128  1.0000
  H   H163      1.0  0.21484  0.51086  0.48199  1.0000
  H   H164      1.0  0.28813  0.47861  0.40467  1.0000
  H   H165      1.0  0.25526  0.47594  0.42235  1.0000
  N   N31       1.0  0.24982  0.51025  0.49246  1.0000
  O   O13       1.0  0.24144  0.49914  0.55958  1.0000
  O   O14       1.0  0.25661  0.52874  0.51329  1.0000
  C   C250      1.0  0.18676  0.50472  0.35816  1.0000
  H   H166      1.0  0.19299  0.52054  0.38167  1.0000
  H   H167      1.0  0.17627  0.49434  0.40906  1.0000
  H   H168      1.0  0.33120  0.52093  0.30083  1.0000
  C   C251      1.0  0.59248  0.87863  0.37260  1.0000
  C   C252      1.0  0.59403  0.86080  0.38340  1.0000
  C   C253      1.0  0.58134  0.84294  0.33344  1.0000
  C   C254      1.0  0.58247  0.82468  0.34409  1.0000
  C   C255      1.0  0.57611  0.81331  0.42499  1.0000
  C   C256      1.0  0.57492  0.79391  0.43021  1.0000
  C   C257      1.0  0.57971  0.78541  0.35688  1.0000
  H   H169      1.0  0.56957  0.78546  0.48762  1.0000
  H   H170      1.0  0.60185  0.89121  0.41029  1.0000
  H   H171      1.0  0.60450  0.86096  0.42790  1.0000
  N   N32       1.0  0.57018  0.82102  0.49809  1.0000
  O   O15       1.0  0.58130  0.82358  0.56517  1.0000
  O   O16       1.0  0.55169  0.80925  0.51896  1.0000
  C   C258      1.0  0.57570  0.76385  0.36376  1.0000
  H   H172      1.0  0.55988  0.75420  0.38734  1.0000
  H   H173      1.0  0.58608  0.76360  0.41460  1.0000
  H   H174      1.0  0.55952  0.89227  0.30672  1.0000
  C   C259      1.0  0.20147  0.79566  0.36084  1.0000
  C   C260      1.0  0.21929  0.81497  0.37278  1.0000
  C   C261      1.0  0.25555  0.83966  0.33570  1.0000
  C   C262      1.0  0.26663  0.84415  0.41729  1.0000
  C   C263      1.0  0.28605  0.86229  0.42408  1.0000
  C   C264      1.0  0.29484  0.87599  0.35162  1.0000
  H   H175      1.0  0.29430  0.86501  0.48196  1.0000
  H   H176      1.0  0.18882  0.79227  0.39811  1.0000
  H   H177      1.0  0.21905  0.82505  0.41767  1.0000
  N   N33       1.0  0.25864  0.83010  0.48956  1.0000
  O   O17       1.0  0.25589  0.83830  0.55680  1.0000
  O   O18       1.0  0.27028  0.82319  0.51076  1.0000
  C   C265      1.0  0.31640  0.89344  0.36019  1.0000
  H   H178      1.0  0.32593  0.88706  0.38364  1.0000
  H   H179      1.0  0.31653  0.90374  0.41171  1.0000
  H   H180      1.0  0.18801  0.74940  0.29312  1.0000
  C   C266      1.0  0.77072  0.62099  0.36653  1.0000
  C   C267      1.0  0.78996  0.62223  0.37740  1.0000
  C   C268      1.0  0.79487  0.60932  0.32807  1.0000
  C   C269      1.0  0.81413  0.61016  0.33868  1.0000
  C   C270      1.0  0.81900  0.60366  0.41976  1.0000
  C   C271      1.0  0.83703  0.60215  0.42494  1.0000
  C   C272      1.0  0.85028  0.60676  0.35140  1.0000
  H   H181      1.0  0.84003  0.59671  0.48252  1.0000
  H   H182      1.0  0.76770  0.63051  0.40373  1.0000
  H   H183      1.0  0.80037  0.63264  0.42147  1.0000
  N   N34       1.0  0.80539  0.59791  0.49310  1.0000
  O   O19       1.0  0.81408  0.60898  0.55980  1.0000
  O   O20       1.0  0.79841  0.57939  0.51459  1.0000
  C   C273      1.0  0.86759  0.60240  0.35827  1.0000
  H   H184      1.0  0.86122  0.58658  0.38274  1.0000
  H   H185      1.0  0.87838  0.61274  0.40845  1.0000
  H   H186      1.0  0.72396  0.58856  0.30190  1.0000
  C   C274      1.0  0.45940  0.23151  0.37213  1.0000
  C   C275      1.0  0.45818  0.24948  0.38302  1.0000
  C   C276      1.0  0.47109  0.26744  0.33370  1.0000
  C   C277      1.0  0.47026  0.28583  0.34431  1.0000
  C   C278      1.0  0.47675  0.29697  0.42540  1.0000
  C   C279      1.0  0.47827  0.31650  0.43058  1.0000
  C   C280      1.0  0.47366  0.32534  0.35704  1.0000
  H   H187      1.0  0.48370  0.32478  0.48817  1.0000
  H   H188      1.0  0.44988  0.21886  0.40932  1.0000
  H   H189      1.0  0.44777  0.24936  0.42708  1.0000
  N   N35       1.0  0.48251  0.28891  0.49872  1.0000
  O   O21       1.0  0.47144  0.28634  0.56543  1.0000
  O   O22       1.0  0.50104  0.30040  0.52019  1.0000
  C   C281      1.0  0.47801  0.34700  0.36392  1.0000
  H   H190      1.0  0.49382  0.35638  0.38850  1.0000
  H   H191      1.0  0.46765  0.34729  0.41403  1.0000
  H   H192      1.0  0.49183  0.21735  0.30755  1.0000
  C   C282      1.0  0.84918  0.30966  0.36041  1.0000
  C   C283      1.0  0.83122  0.29047  0.37245  1.0000
  C   C284      1.0  0.79475  0.26629  0.33592  1.0000
  C   C285      1.0  0.78389  0.26171  0.41770  1.0000
  C   C286      1.0  0.76435  0.24374  0.42446  1.0000
  C   C287      1.0  0.75522  0.23027  0.35183  1.0000
  H   H193      1.0  0.75627  0.24096  0.48251  1.0000
  H   H194      1.0  0.86191  0.31276  0.39721  1.0000
  H   H195      1.0  0.83143  0.28017  0.41692  1.0000
  N   N36       1.0  0.79224  0.27555  0.49016  1.0000
  O   O23       1.0  0.79499  0.26705  0.55707  1.0000
  O   O24       1.0  0.78087  0.28265  0.51192  1.0000
  C   C288      1.0  0.73356  0.21304  0.36042  1.0000
  H   H196      1.0  0.72431  0.21957  0.38455  1.0000
  H   H197      1.0  0.73338  0.20247  0.41144  1.0000
  H   H198      1.0  0.86317  0.35628  0.29392  1.0000
