data_image0
_chemical_formula_structural       C4OC4OH4N2C4OC4OH4N2C4OC4OH4N2C2HC3NHNH2CHC2HC3NHNH2CHC2HC3NHNH2CHC2HC3NHNH2CHC2HC3NHNH2CHC2HC3NHNH2CHC2HC2HN2C2HC2HN2C2HC2HN2C2NC3H2NH2CHC2NC3H2NH2CHC2NC3H2NH2CHC2NC3H2NH2CHC2NC3H2NH2CHC2NC3H2NH2CH
_chemical_formula_sum              "C108 O6 H78 N36"
_cell_length_a       39.0382
_cell_length_b       39.0382
_cell_length_c       14.9259
_cell_angle_alpha    90
_cell_angle_beta     90
_cell_angle_gamma    120

_space_group_name_H-M_alt    "P 1"
_space_group_IT_number       1

loop_
  _space_group_symop_operation_xyz
  'x, y, z'

loop_
  _atom_site_type_symbol
  _atom_site_label
  _atom_site_symmetry_multiplicity
  _atom_site_fract_x
  _atom_site_fract_y
  _atom_site_fract_z
  _atom_site_occupancy
  C   C1        1.0  0.98252  0.49172  0.34071  1.0000
  C   C2        1.0  0.89749  0.44888  0.33886  1.0000
  C   C3        1.0  0.91838  0.42828  0.33076  1.0000
  C   C4        1.0  0.96019  0.44979  0.32941  1.0000
  O   O1        1.0  0.85702  0.42844  0.33956  1.0000
  C   C5        1.0  0.02583  0.51358  0.34090  1.0000
  C   C6        1.0  0.04820  0.55548  0.32917  1.0000
  C   C7        1.0  0.09002  0.57700  0.33098  1.0000
  C   C8        1.0  0.11087  0.55639  0.33988  1.0000
  O   O2        1.0  0.15133  0.57681  0.34112  1.0000
  H   H1        1.0  0.84864  0.42632  0.27669  1.0000
  H   H2        1.0  0.15987  0.57883  0.27839  1.0000
  H   H3        1.0  0.97400  0.43392  0.31809  1.0000
  H   H4        1.0  0.03441  0.57133  0.31741  1.0000
  N   N1        1.0  0.11216  0.61606  0.32469  1.0000
  N   N2        1.0  0.89623  0.38926  0.32383  1.0000
  C   C9        1.0  0.51488  0.49176  0.34064  1.0000
  C   C10       1.0  0.55787  0.44968  0.33910  1.0000
  C   C11       1.0  0.57843  0.49118  0.33135  1.0000
  C   C12       1.0  0.55685  0.51142  0.32989  1.0000
  O   O3        1.0  0.57837  0.42970  0.34007  1.0000
  C   C13       1.0  0.49293  0.51315  0.34086  1.0000
  C   C14       1.0  0.45095  0.49352  0.33030  1.0000
  C   C15       1.0  0.42937  0.51374  0.33218  1.0000
  C   C16       1.0  0.44994  0.55524  0.34009  1.0000
  O   O4        1.0  0.42945  0.57522  0.34141  1.0000
  H   H5        1.0  0.58067  0.42354  0.27722  1.0000
  H   H6        1.0  0.42711  0.58144  0.27863  1.0000
  H   H7        1.0  0.57274  0.54112  0.31898  1.0000
  H   H8        1.0  0.43504  0.46382  0.31932  1.0000
  N   N3        1.0  0.39030  0.49678  0.32638  1.0000
  N   N4        1.0  0.61748  0.50812  0.32496  1.0000
  C   C17       1.0  0.51406  0.02395  0.34332  1.0000
  C   C18       1.0  0.55577  0.10899  0.34324  1.0000
  C   C19       1.0  0.51431  0.08789  0.33446  1.0000
  C   C20       1.0  0.49426  0.04610  0.33231  1.0000
  O   O5        1.0  0.57554  0.14945  0.34502  1.0000
  C   C21       1.0  0.49275  0.98064  0.34319  1.0000
  C   C22       1.0  0.51235  0.95837  0.33093  1.0000
  C   C23       1.0  0.49210  0.91654  0.33207  1.0000
  C   C24       1.0  0.45063  0.89561  0.34100  1.0000
  O   O6        1.0  0.43061  0.85514  0.34143  1.0000
  H   H9        1.0  0.58196  0.15819  0.28239  1.0000
  H   H10       1.0  0.42410  0.84685  0.27857  1.0000
  H   H11       1.0  0.46460  0.03217  0.32054  1.0000
  H   H12       1.0  0.54200  0.97224  0.31915  1.0000
  N   N5        1.0  0.50899  0.89442  0.32468  1.0000
  N   N6        1.0  0.49725  0.10984  0.32696  1.0000
  C   C25       1.0  0.27711  0.47910  0.26422  1.0000
  C   C26       1.0  0.31308  0.47846  0.26316  1.0000
  H   H13       1.0  0.33328  0.49343  0.21359  1.0000
  C   C27       1.0  0.21448  0.45956  0.34815  1.0000
  C   C28       1.0  0.14260  0.46054  0.35325  1.0000
  C   C29       1.0  0.15081  0.44039  0.28569  1.0000
  N   N7        1.0  0.18584  0.44097  0.28516  1.0000
  H   H14       1.0  0.13140  0.42650  0.23429  1.0000
  N   N8        1.0  0.27049  0.49976  0.19975  1.0000
  H   H15       1.0  0.28972  0.51359  0.15249  1.0000
  H   H16       1.0  0.24692  0.50219  0.19973  1.0000
  C   C30       1.0  0.10889  0.46393  0.34886  1.0000
  H   H17       1.0  0.08345  0.44142  0.32751  1.0000
  C   C31       1.0  0.52614  0.79871  0.26090  1.0000
  C   C32       1.0  0.52692  0.83540  0.26014  1.0000
  H   H18       1.0  0.51183  0.84069  0.21097  1.0000
  C   C33       1.0  0.54592  0.75556  0.34395  1.0000
  C   C34       1.0  0.54547  0.68294  0.34904  1.0000
  C   C35       1.0  0.56469  0.71094  0.28030  1.0000
  N   N9        1.0  0.56389  0.74527  0.27987  1.0000
  H   H19       1.0  0.57799  0.70520  0.22797  1.0000
  N   N10       1.0  0.50525  0.77148  0.19655  1.0000
  H   H20       1.0  0.49123  0.77689  0.14979  1.0000
  H   H21       1.0  0.50257  0.74538  0.19657  1.0000
  C   C36       1.0  0.54220  0.64587  0.34481  1.0000
  H   H22       1.0  0.56451  0.64297  0.32182  1.0000
  C   C37       1.0  0.20741  0.72954  0.26292  1.0000
  C   C38       1.0  0.17086  0.69351  0.26134  1.0000
  H   H23       1.0  0.16577  0.67341  0.21160  1.0000
  C   C39       1.0  0.25025  0.79193  0.34791  1.0000
  C   C40       1.0  0.32301  0.86386  0.35462  1.0000
  C   C41       1.0  0.29485  0.85584  0.28668  1.0000
  N   N11       1.0  0.26045  0.82078  0.28538  1.0000
  H   H24       1.0  0.30053  0.87539  0.23550  1.0000
  N   N12       1.0  0.23481  0.73641  0.19859  1.0000
  H   H25       1.0  0.22954  0.71733  0.15107  1.0000
  H   H26       1.0  0.26077  0.76004  0.19888  1.0000
  C   C42       1.0  0.36015  0.89755  0.35082  1.0000
  H   H27       1.0  0.36305  0.92309  0.33038  1.0000
  C   C43       1.0  0.73021  0.52496  0.26140  1.0000
  C   C44       1.0  0.69429  0.52570  0.26079  1.0000
  H   H28       1.0  0.67380  0.51042  0.21194  1.0000
  C   C45       1.0  0.79334  0.54509  0.34380  1.0000
  C   C46       1.0  0.86544  0.54451  0.34852  1.0000
  C   C47       1.0  0.85665  0.56374  0.27984  1.0000
  N   N13       1.0  0.82155  0.56302  0.27961  1.0000
  H   H29       1.0  0.87569  0.57708  0.22754  1.0000
  N   N14       1.0  0.73641  0.50381  0.19746  1.0000
  H   H30       1.0  0.71689  0.48966  0.15090  1.0000
  H   H31       1.0  0.75992  0.50129  0.19722  1.0000
  C   C48       1.0  0.89916  0.54114  0.34406  1.0000
  H   H32       1.0  0.92453  0.56362  0.32222  1.0000
  C   C49       1.0  0.48137  0.20586  0.25976  1.0000
  C   C50       1.0  0.48031  0.16904  0.25962  1.0000
  H   H33       1.0  0.49582  0.16375  0.21150  1.0000
  C   C51       1.0  0.46124  0.24913  0.34097  1.0000
  C   C52       1.0  0.46221  0.32199  0.34547  1.0000
  C   C53       1.0  0.44360  0.29433  0.27581  1.0000
  N   N15       1.0  0.44409  0.25983  0.27577  1.0000
  H   H34       1.0  0.43086  0.30036  0.22280  1.0000
  N   N16       1.0  0.50314  0.23324  0.19639  1.0000
  H   H35       1.0  0.51748  0.22778  0.15048  1.0000
  H   H36       1.0  0.50593  0.25938  0.19597  1.0000
  C   C54       1.0  0.46569  0.35914  0.34122  1.0000
  H   H37       1.0  0.44364  0.36223  0.31721  1.0000
  C   C55       1.0  0.80011  0.27710  0.25873  1.0000
  C   C56       1.0  0.83694  0.31284  0.25870  1.0000
  H   H38       1.0  0.84234  0.33356  0.21030  1.0000
  C   C57       1.0  0.75660  0.21371  0.33999  1.0000
  C   C58       1.0  0.68364  0.14176  0.34380  1.0000
  C   C59       1.0  0.71122  0.15116  0.27378  1.0000
  N   N17       1.0  0.74573  0.18613  0.27409  1.0000
  H   H39       1.0  0.70507  0.13269  0.22011  1.0000
  N   N18       1.0  0.77292  0.27143  0.19479  1.0000
  H   H40       1.0  0.77848  0.29123  0.14885  1.0000
  H   H41       1.0  0.74668  0.24821  0.19451  1.0000
  C   C60       1.0  0.64641  0.10812  0.33919  1.0000
  H   H42       1.0  0.64305  0.08358  0.31084  1.0000
  C   C61       1.0  0.95978  0.51091  0.35159  1.0000
  C   C62       1.0  0.91797  0.49028  0.34900  1.0000
  H   H43       1.0  0.97329  0.54053  0.36348  1.0000
  C   C63       1.0  0.09036  0.51501  0.35062  1.0000
  C   C64       1.0  0.04854  0.49442  0.35280  1.0000
  H   H44       1.0  0.03498  0.46483  0.36530  1.0000
  N   N19       1.0  0.11278  0.49840  0.35771  1.0000
  N   N20       1.0  0.89549  0.50686  0.35487  1.0000
  C   C65       1.0  0.49576  0.44981  0.35102  1.0000
  C   C66       1.0  0.51645  0.42868  0.34855  1.0000
  H   H45       1.0  0.46611  0.43358  0.36248  1.0000
  C   C67       1.0  0.49138  0.57623  0.34960  1.0000
  C   C68       1.0  0.51206  0.55509  0.35164  1.0000
  H   H46       1.0  0.54170  0.57128  0.36320  1.0000
  N   N21       1.0  0.50792  0.61527  0.35580  1.0000
  N   N22       1.0  0.49989  0.38962  0.35408  1.0000
  C   C69       1.0  0.55600  0.04687  0.35384  1.0000
  C   C70       1.0  0.57694  0.08870  0.35205  1.0000
  H   H47       1.0  0.57231  0.03350  0.36483  1.0000
  C   C71       1.0  0.42972  0.91604  0.35251  1.0000
  C   C72       1.0  0.45090  0.95784  0.35533  1.0000
  H   H48       1.0  0.43484  0.97132  0.36836  1.0000
  N   N23       1.0  0.39069  0.89358  0.35931  1.0000
  N   N24       1.0  0.61600  0.11139  0.35689  1.0000
  C   C73       1.0  0.32262  0.45910  0.33056  1.0000
  C   C74       1.0  0.29425  0.43933  0.39831  1.0000
  N   N25       1.0  0.26009  0.44049  0.39894  1.0000
  C   C75       1.0  0.25032  0.45926  0.33581  1.0000
  C   C76       1.0  0.20796  0.47984  0.41945  1.0000
  C   C77       1.0  0.17162  0.47975  0.42048  1.0000
  H   H49       1.0  0.16665  0.49495  0.46995  1.0000
  H   H50       1.0  0.29965  0.42549  0.45001  1.0000
  N   N26       1.0  0.23539  0.50034  0.48376  1.0000
  H   H51       1.0  0.26121  0.50236  0.48382  1.0000
  H   H52       1.0  0.23029  0.51446  0.53084  1.0000
  C   C78       1.0  0.35966  0.46237  0.33524  1.0000
  H   H53       1.0  0.36245  0.43957  0.35497  1.0000
  C   C79       1.0  0.54649  0.86426  0.32750  1.0000
  C   C80       1.0  0.56641  0.85559  0.39475  1.0000
  N   N27       1.0  0.56517  0.82024  0.39500  1.0000
  C   C81       1.0  0.54614  0.79169  0.33201  1.0000
  C   C82       1.0  0.52658  0.72912  0.41641  1.0000
  C   C83       1.0  0.52693  0.69299  0.41740  1.0000
  H   H54       1.0  0.51236  0.67306  0.46771  1.0000
  H   H55       1.0  0.58047  0.87483  0.44634  1.0000
  N   N28       1.0  0.50670  0.73622  0.48192  1.0000
  H   H56       1.0  0.50440  0.75987  0.48201  1.0000
  H   H57       1.0  0.49319  0.71723  0.52977  1.0000
  C   C84       1.0  0.54343  0.89816  0.33255  1.0000
  H   H58       1.0  0.56614  0.92355  0.35344  1.0000
  C   C85       1.0  0.14187  0.68372  0.32860  1.0000
  C   C86       1.0  0.15026  0.71190  0.39669  1.0000
  N   N29       1.0  0.18551  0.74611  0.39781  1.0000
  C   C87       1.0  0.21416  0.75612  0.33485  1.0000
  C   C88       1.0  0.27682  0.79827  0.41960  1.0000
  C   C89       1.0  0.31304  0.83466  0.42143  1.0000
  H   H59       1.0  0.33309  0.83947  0.47109  1.0000
  H   H60       1.0  0.13093  0.70630  0.44831  1.0000
  N   N30       1.0  0.26975  0.77065  0.48351  1.0000
  H   H61       1.0  0.24600  0.74479  0.48298  1.0000
  H   H62       1.0  0.28883  0.77564  0.53086  1.0000
  C   C90       1.0  0.10819  0.64661  0.33297  1.0000
  H   H63       1.0  0.08253  0.64372  0.35247  1.0000
  C   C91       1.0  0.68517  0.54555  0.32780  1.0000
  C   C92       1.0  0.71393  0.56578  0.39453  1.0000
  N   N31       1.0  0.74806  0.56458  0.39465  1.0000
  C   C93       1.0  0.75743  0.54529  0.33199  1.0000
  C   C94       1.0  0.80045  0.52571  0.41616  1.0000
  C   C95       1.0  0.83689  0.52599  0.41698  1.0000
  H   H64       1.0  0.84226  0.51142  0.46725  1.0000
  H   H65       1.0  0.70889  0.58009  0.44576  1.0000
  N   N32       1.0  0.77351  0.50590  0.48181  1.0000
  H   H66       1.0  0.74756  0.50361  0.48192  1.0000
  H   H67       1.0  0.77895  0.49229  0.52947  1.0000
  C   C96       1.0  0.64823  0.54251  0.33288  1.0000
  H   H68       1.0  0.64560  0.56542  0.35247  1.0000
  C   C97       1.0  0.45983  0.14003  0.32617  1.0000
  C   C98       1.0  0.43932  0.14867  0.39196  1.0000
  N   N33       1.0  0.44088  0.18417  0.39171  1.0000
  C   C99       1.0  0.46077  0.21287  0.32949  1.0000
  C   C100      1.0  0.47999  0.27525  0.41426  1.0000
  C   C101      1.0  0.47992  0.31152  0.41492  1.0000
  H   H69       1.0  0.49401  0.33119  0.46594  1.0000
  H   H70       1.0  0.42464  0.12933  0.44297  1.0000
  N   N34       1.0  0.49906  0.26771  0.48093  1.0000
  H   H71       1.0  0.50117  0.24395  0.48134  1.0000
  H   H72       1.0  0.51219  0.28649  0.52935  1.0000
  C   C102      1.0  0.46274  0.10610  0.33209  1.0000
  H   H73       1.0  0.43951  0.08041  0.34962  1.0000
  C   C103      1.0  0.86575  0.32155  0.32586  1.0000
  C   C104      1.0  0.85692  0.29248  0.39199  1.0000
  N   N35       1.0  0.82144  0.25851  0.39149  1.0000
  C   C105      1.0  0.79289  0.24956  0.32880  1.0000
  C   C106      1.0  0.73060  0.20598  0.41370  1.0000
  C   C107      1.0  0.69433  0.16964  0.41403  1.0000
  H   H74       1.0  0.67475  0.16388  0.46536  1.0000
  H   H75       1.0  0.87611  0.29722  0.44339  1.0000
  N   N36       1.0  0.73819  0.23231  0.48110  1.0000
  H   H76       1.0  0.76188  0.25821  0.48173  1.0000
  H   H77       1.0  0.71945  0.22642  0.52974  1.0000
  C   C108      1.0  0.89972  0.35842  0.33180  1.0000
  H   H78       1.0  0.92512  0.36091  0.35202  1.0000
