data_image0
_chemical_formula_structural       C3NC3NC5NC5NC20H18N4C2HC6H3CHC3HC6H3CHC8H8C2NC2HNHCHC2NCHNHCH
_chemical_formula_sum              "C72 N12 H42"
_cell_length_a       29.716
_cell_length_b       29.714
_cell_length_c       14.9722
_cell_angle_alpha    90
_cell_angle_beta     90
_cell_angle_gamma    89.9737

_space_group_name_H-M_alt    "P 1"
_space_group_IT_number       1

loop_
  _space_group_symop_operation_xyz
  'x, y, z'

loop_
  _atom_site_type_symbol
  _atom_site_label
  _atom_site_symmetry_multiplicity
  _atom_site_fract_x
  _atom_site_fract_y
  _atom_site_fract_z
  _atom_site_occupancy
  C   C1        1.0  0.91764  0.11929  0.31680  1.0000
  C   C2        1.0  0.88420  0.08707  0.31705  1.0000
  C   C3        1.0  0.90458  0.04467  0.31658  1.0000
  N   N1        1.0  0.94948  0.05280  0.31594  1.0000
  C   C4        1.0  0.95926  0.09736  0.31671  1.0000
  C   C5        1.0  0.00184  0.11928  0.31731  1.0000
  C   C6        1.0  0.04407  0.09692  0.31762  1.0000
  N   N2        1.0  0.05192  0.05212  0.31827  1.0000
  C   C7        1.0  0.09639  0.04262  0.31885  1.0000
  C   C8        1.0  0.11854  0.08408  0.31820  1.0000
  C   C9        1.0  0.08631  0.11753  0.31794  1.0000
  C   C10       1.0  0.11718  0.99958  0.31949  1.0000
  C   C11       1.0  0.09370  0.95785  0.31979  1.0000
  N   N3        1.0  0.04880  0.94973  0.32028  1.0000
  C   C12       1.0  0.03901  0.90515  0.31990  1.0000
  C   C13       1.0  0.08063  0.88323  0.31952  1.0000
  C   C14       1.0  0.11407  0.91545  0.31979  1.0000
  C   C15       1.0  0.99644  0.88324  0.31942  1.0000
  C   C16       1.0  0.95421  0.90560  0.31866  1.0000
  N   N4        1.0  0.94638  0.95041  0.31813  1.0000
  C   C17       1.0  0.90190  0.95991  0.31776  1.0000
  C   C18       1.0  0.87975  0.91845  0.31789  1.0000
  C   C19       1.0  0.91197  0.88500  0.31862  1.0000
  C   C20       1.0  0.88111  0.00294  0.31737  1.0000
  C   C21       1.0  0.83320  0.00417  0.31994  1.0000
  C   C22       1.0  0.73741  0.00466  0.32542  1.0000
  C   C23       1.0  0.76058  0.00921  0.24357  1.0000
  C   C24       1.0  0.80793  0.00894  0.24062  1.0000
  C   C25       1.0  0.99599  0.83529  0.31797  1.0000
  C   C26       1.0  0.99652  0.73949  0.31393  1.0000
  C   C27       1.0  0.99082  0.76472  0.23447  1.0000
  C   C28       1.0  0.99076  0.81205  0.23637  1.0000
  C   C29       1.0  0.16511  0.99833  0.31785  1.0000
  C   C30       1.0  0.18818  0.99225  0.23630  1.0000
  C   C31       1.0  0.23550  0.99175  0.23413  1.0000
  C   C32       1.0  0.26091  0.99774  0.31329  1.0000
  C   C33       1.0  0.00230  0.16721  0.31981  1.0000
  C   C34       1.0  0.00740  0.19251  0.24062  1.0000
  C   C35       1.0  0.00261  0.26300  0.32541  1.0000
  C   C36       1.0  0.00756  0.23986  0.24362  1.0000
  H   H1        1.0  0.01123  0.25741  0.18519  1.0000
  H   H2        1.0  0.01095  0.17664  0.18033  1.0000
  H   H3        1.0  0.91186  0.15321  0.31716  1.0000
  H   H4        1.0  0.85052  0.09409  0.31777  1.0000
  H   H5        1.0  0.97188  0.02954  0.31545  1.0000
  H   H6        1.0  0.02639  0.97298  0.32075  1.0000
  H   H7        1.0  0.09312  0.15124  0.31768  1.0000
  H   H8        1.0  0.15248  0.08966  0.31821  1.0000
  H   H9        1.0  0.17068  0.98817  0.17793  1.0000
  H   H10       1.0  0.25112  0.98681  0.17412  1.0000
  H   H11       1.0  0.14775  0.90842  0.31965  1.0000
  H   H12       1.0  0.08642  0.84932  0.31891  1.0000
  H   H13       1.0  0.84581  0.91289  0.31756  1.0000
  H   H14       1.0  0.90516  0.85128  0.31923  1.0000
  H   H15       1.0  0.98683  0.82943  0.17782  1.0000
  H   H16       1.0  0.98643  0.74895  0.17444  1.0000
  H   H17       1.0  0.82382  0.01197  0.18025  1.0000
  H   H18       1.0  0.74305  0.01248  0.18503  1.0000
  N   N5        1.0  0.99699  0.69467  0.31712  1.0000
  N   N6        1.0  0.30574  0.99794  0.31626  1.0000
  N   N7        1.0  0.00264  0.30779  0.32208  1.0000
  N   N8        1.0  0.69263  0.00447  0.32196  1.0000
  C   C37       1.0  0.00151  0.44705  0.25092  1.0000
  C   C38       1.0  0.00126  0.40051  0.27027  1.0000
  H   H19       1.0  0.00098  0.37801  0.21844  1.0000
  C   C39       1.0  0.00208  0.52489  0.30609  1.0000
  C   C40       1.0  0.00324  0.61868  0.27393  1.0000
  C   C41       1.0  0.00284  0.58779  0.20187  1.0000
  C   C42       1.0  0.00222  0.54087  0.21670  1.0000
  C   C43       1.0  0.00191  0.50982  0.14535  1.0000
  C   C44       1.0  0.00153  0.46329  0.16231  1.0000
  H   H20       1.0  0.00201  0.52080  0.08052  1.0000
  H   H21       1.0  0.00136  0.44142  0.10947  1.0000
  H   H22       1.0  0.00304  0.59954  0.13746  1.0000
  C   C45       1.0  0.00466  0.66472  0.25689  1.0000
  H   H23       1.0  0.01225  0.67481  0.19535  1.0000
  C   C46       1.0  0.52234  0.00218  0.32237  1.0000
  C   C47       1.0  0.55345  0.00169  0.25030  1.0000
  C   C48       1.0  0.59997  0.00170  0.26979  1.0000
  H   H24       1.0  0.62251  0.00122  0.21804  1.0000
  C   C49       1.0  0.47557  0.00225  0.30524  1.0000
  C   C50       1.0  0.38180  0.00299  0.27278  1.0000
  C   C51       1.0  0.41274  0.00230  0.20083  1.0000
  C   C52       1.0  0.45965  0.00190  0.21580  1.0000
  C   C53       1.0  0.49076  0.00134  0.14455  1.0000
  C   C54       1.0  0.53727  0.00122  0.16166  1.0000
  H   H25       1.0  0.47983  0.00110  0.07970  1.0000
  H   H26       1.0  0.55919  0.00087  0.10889  1.0000
  H   H27       1.0  0.40105  0.00218  0.13638  1.0000
  C   C55       1.0  0.33576  0.00425  0.25557  1.0000
  H   H28       1.0  0.32572  0.01076  0.19351  1.0000
  C   C56       1.0  0.81025  0.99980  0.40208  1.0000
  C   C57       1.0  0.76292  0.99998  0.40477  1.0000
  C   C58       1.0  0.00096  0.81030  0.39762  1.0000
  C   C59       1.0  0.00108  0.76293  0.39545  1.0000
  C   C60       1.0  0.23764  0.00315  0.39479  1.0000
  C   C61       1.0  0.19027  0.00357  0.39722  1.0000
  C   C62       1.0  0.99738  0.19013  0.40186  1.0000
  C   C63       1.0  0.99745  0.23746  0.40460  1.0000
  H   H29       1.0  0.99349  0.25293  0.46502  1.0000
  H   H30       1.0  0.99352  0.17250  0.46013  1.0000
  H   H31       1.0  0.17428  0.00798  0.45716  1.0000
  H   H32       1.0  0.25509  0.00730  0.45318  1.0000
  H   H33       1.0  0.00470  0.82643  0.45759  1.0000
  H   H34       1.0  0.00494  0.74560  0.45407  1.0000
  H   H35       1.0  0.74744  0.99636  0.46525  1.0000
  H   H36       1.0  0.82785  0.99610  0.46042  1.0000
  C   C64       1.0  0.00129  0.38466  0.35957  1.0000
  C   C65       1.0  0.00154  0.41753  0.42802  1.0000
  N   N9        1.0  0.00178  0.46204  0.40801  1.0000
  C   C66       1.0  0.00177  0.47810  0.32308  1.0000
  C   C67       1.0  0.00292  0.60044  0.36128  1.0000
  H   H37       1.0  0.00155  0.40849  0.49397  1.0000
  N   N10       1.0  0.00243  0.55523  0.37406  1.0000
  H   H38       1.0  0.00348  0.62078  0.41634  1.0000
  C   C68       1.0  0.00085  0.33906  0.38144  1.0000
  H   H39       1.0  0.99920  0.33043  0.44551  1.0000
  C   C69       1.0  0.61574  0.00222  0.35914  1.0000
  C   C70       1.0  0.58283  0.00267  0.42749  1.0000
  N   N11       1.0  0.53834  0.00265  0.40735  1.0000
  C   C71       1.0  0.39998  0.00313  0.36019  1.0000
  H   H40       1.0  0.59182  0.00302  0.49345  1.0000
  N   N12       1.0  0.44518  0.00283  0.37310  1.0000
  H   H41       1.0  0.37961  0.00390  0.41518  1.0000
  C   C72       1.0  0.66133  0.00194  0.38115  1.0000
  H   H42       1.0  0.66990  0.99969  0.44517  1.0000
