data_image0
_chemical_formula_structural       C3NC3NC5NC4NC35H25C21H18C16H16NC2N2C2NCNC3N2C2N2C2NCNC3NC18H17C3NC3NC2NC5NC34H24C3NC3NC5NC5NC36H26C2NC2NC2NC2N2C2NC2NC2NC2NC2N2C2N
_chemical_formula_sum              "C240 N36 H126"
_cell_length_a       58.5828
_cell_length_b       58.5828
_cell_length_c       14.977
_cell_angle_alpha    89.7732
_cell_angle_beta     90.2268
_cell_angle_gamma    120

_space_group_name_H-M_alt    "P 1"
_space_group_IT_number       1

loop_
  _space_group_symop_operation_xyz
  'x, y, z'

loop_
  _atom_site_type_symbol
  _atom_site_label
  _atom_site_symmetry_multiplicity
  _atom_site_fract_x
  _atom_site_fract_y
  _atom_site_fract_z
  _atom_site_occupancy
  C   C1        1.0  0.01981  0.48575  0.33433  1.0000
  C   C2        1.0  0.04702  0.49936  0.33265  1.0000
  C   C3        1.0  0.05564  0.52633  0.33231  1.0000
  N   N1        1.0  0.03341  0.52805  0.33339  1.0000
  C   C4        1.0  0.01118  0.50409  0.33456  1.0000
  C   C5        1.0  0.98436  0.49772  0.33560  1.0000
  C   C6        1.0  0.97566  0.51642  0.33448  1.0000
  N   N2        1.0  0.99056  0.54299  0.33326  1.0000
  C   C7        1.0  0.97566  0.55466  0.33214  1.0000
  C   C8        1.0  0.94946  0.53422  0.33256  1.0000
  C   C9        1.0  0.94947  0.51067  0.33425  1.0000
  C   C10       1.0  0.98435  0.58205  0.33109  1.0000
  C   C11       1.0  0.01118  0.60250  0.33217  1.0000
  N   N3        1.0  0.03340  0.60078  0.33335  1.0000
  C   C12       1.0  0.05563  0.62473  0.33460  1.0000
  C   C13       1.0  0.04701  0.64307  0.33430  1.0000
  C   C14       1.0  0.01980  0.62947  0.33251  1.0000
  C   C15       1.0  0.08246  0.63110  0.33576  1.0000
  N   N4        1.0  0.07625  0.58584  0.33351  1.0000
  C   C16       1.0  0.09116  0.57417  0.33238  1.0000
  C   C17       1.0  0.11735  0.59462  0.33274  1.0000
  C   C18       1.0  0.11735  0.61817  0.33443  1.0000
  C   C19       1.0  0.08247  0.54679  0.33132  1.0000
  C   C20       1.0  0.10226  0.53945  0.32881  1.0000
  C   C21       1.0  0.11229  0.53688  0.24626  1.0000
  C   C22       1.0  0.13320  0.53158  0.24371  1.0000
  C   C23       1.0  0.14468  0.52870  0.32333  1.0000
  C   C24       1.0  0.16699  0.52497  0.32065  1.0000
  C   C25       1.0  0.21101  0.53773  0.26297  1.0000
  C   C26       1.0  0.18847  0.54042  0.26328  1.0000
  C   C27       1.0  0.10224  0.65824  0.33863  1.0000
  C   C28       1.0  0.11298  0.67257  0.25902  1.0000
  C   C29       1.0  0.13364  0.69891  0.26222  1.0000
  C   C30       1.0  0.14422  0.71160  0.34482  1.0000
  C   C31       1.0  0.16623  0.73783  0.34786  1.0000
  C   C32       1.0  0.16765  0.75798  0.29166  1.0000
  C   C33       1.0  0.18990  0.78348  0.29248  1.0000
  C   C34       1.0  0.21144  0.78983  0.35019  1.0000
  C   C35       1.0  0.96457  0.58941  0.32857  1.0000
  C   C36       1.0  0.92258  0.60080  0.32317  1.0000
  C   C37       1.0  0.93367  0.59763  0.24353  1.0000
  C   C38       1.0  0.95438  0.59203  0.24604  1.0000
  C   C39       1.0  0.90057  0.60502  0.32055  1.0000
  C   C40       1.0  0.87883  0.58982  0.26369  1.0000
  C   C41       1.0  0.85661  0.59307  0.26326  1.0000
  C   C42       1.0  0.85536  0.61183  0.31913  1.0000
  C   C43       1.0  0.96457  0.47059  0.33845  1.0000
  C   C44       1.0  0.95347  0.45647  0.25884  1.0000
  C   C45       1.0  0.93261  0.43022  0.26207  1.0000
  C   C46       1.0  0.92216  0.41742  0.34470  1.0000
  C   C47       1.0  0.89984  0.39138  0.34781  1.0000
  C   C48       1.0  0.85396  0.33984  0.35001  1.0000
  C   C49       1.0  0.87524  0.34590  0.29186  1.0000
  C   C50       1.0  0.89782  0.37117  0.29109  1.0000
  H   H1        1.0  0.87451  0.33188  0.24948  1.0000
  H   H2        1.0  0.91286  0.37465  0.24856  1.0000
  H   H3        1.0  0.92440  0.42089  0.20310  1.0000
  H   H4        1.0  0.96005  0.46541  0.19808  1.0000
  H   H5        1.0  0.00842  0.46566  0.33482  1.0000
  H   H6        1.0  0.05841  0.49066  0.33220  1.0000
  H   H7        1.0  0.03341  0.54443  0.33336  1.0000
  H   H8        1.0  0.03341  0.58440  0.33334  1.0000
  H   H9        1.0  0.93288  0.49247  0.33486  1.0000
  H   H10       1.0  0.93288  0.53583  0.33212  1.0000
  H   H11       1.0  0.96166  0.58943  0.18729  1.0000
  H   H12       1.0  0.92669  0.59930  0.18255  1.0000
  H   H13       1.0  0.00841  0.63817  0.33200  1.0000
  H   H14       1.0  0.05840  0.66316  0.33489  1.0000
  H   H15       1.0  0.13394  0.63637  0.33496  1.0000
  H   H16       1.0  0.10626  0.66374  0.19826  1.0000
  H   H17       1.0  0.14156  0.70842  0.20322  1.0000
  H   H18       1.0  0.19018  0.79745  0.25052  1.0000
  H   H19       1.0  0.15240  0.75430  0.24950  1.0000
  H   H20       1.0  0.18838  0.55461  0.22347  1.0000
  H   H21       1.0  0.22652  0.55017  0.22338  1.0000
  H   H22       1.0  0.14009  0.52999  0.18271  1.0000
  H   H23       1.0  0.10478  0.53935  0.18751  1.0000
  H   H24       1.0  0.87849  0.57543  0.22420  1.0000
  H   H25       1.0  0.84089  0.58080  0.22406  1.0000
  C   C51       1.0  0.54492  0.51995  0.33481  1.0000
  C   C52       1.0  0.56536  0.51419  0.33513  1.0000
  C   C53       1.0  0.58891  0.53774  0.33676  1.0000
  C   C54       1.0  0.56274  0.67454  0.24903  1.0000
  C   C55       1.0  0.56803  0.70075  0.24647  1.0000
  C   C56       1.0  0.56189  0.77238  0.26558  1.0000
  C   C57       1.0  0.55918  0.74713  0.26600  1.0000
  C   C58       1.0  0.42708  0.53948  0.26109  1.0000
  C   C59       1.0  0.40074  0.53380  0.26395  1.0000
  C   C60       1.0  0.34164  0.50866  0.29279  1.0000
  C   C61       1.0  0.31614  0.50541  0.29319  1.0000
  C   C62       1.0  0.30975  0.52052  0.35051  1.0000
  C   C63       1.0  0.50194  0.43516  0.24624  1.0000
  C   C64       1.0  0.50754  0.46147  0.24876  1.0000
  C   C65       1.0  0.50977  0.38811  0.26641  1.0000
  C   C66       1.0  0.50653  0.36264  0.26599  1.0000
  C   C67       1.0  0.64306  0.59613  0.26090  1.0000
  C   C68       1.0  0.66931  0.60150  0.26379  1.0000
  C   C69       1.0  0.75978  0.61308  0.35032  1.0000
  C   C70       1.0  0.75366  0.62844  0.29251  1.0000
  C   C71       1.0  0.72839  0.62574  0.29218  1.0000
  H   H26       1.0  0.76763  0.64184  0.25006  1.0000
  H   H27       1.0  0.72486  0.63740  0.24985  1.0000
  H   H28       1.0  0.67860  0.60280  0.20470  1.0000
  H   H29       1.0  0.63407  0.59392  0.20025  1.0000
  H   H30       1.0  0.60711  0.53934  0.33735  1.0000
  H   H31       1.0  0.51015  0.47148  0.19001  1.0000
  H   H32       1.0  0.50027  0.42663  0.18527  1.0000
  H   H33       1.0  0.46141  0.46920  0.33474  1.0000
  H   H34       1.0  0.43596  0.54166  0.20045  1.0000
  H   H35       1.0  0.39127  0.53227  0.20483  1.0000
  H   H36       1.0  0.30221  0.49177  0.25121  1.0000
  H   H37       1.0  0.34536  0.49714  0.25091  1.0000
  H   H38       1.0  0.54499  0.73293  0.22617  1.0000
  H   H39       1.0  0.54942  0.77551  0.22607  1.0000
  H   H40       1.0  0.56962  0.70935  0.18546  1.0000
  H   H41       1.0  0.56024  0.66467  0.19029  1.0000
  H   H42       1.0  0.52414  0.40224  0.22687  1.0000
  H   H43       1.0  0.51878  0.35927  0.22670  1.0000
  C   C72       1.0  0.42519  0.98742  0.25031  1.0000
  C   C73       1.0  0.39898  0.96650  0.24725  1.0000
  C   C74       1.0  0.32733  0.88867  0.26489  1.0000
  C   C75       1.0  0.35257  0.91121  0.26577  1.0000
  C   C76       1.0  0.56012  0.98669  0.26364  1.0000
  C   C77       1.0  0.56583  0.96604  0.26653  1.0000
  C   C78       1.0  0.59095  0.93202  0.29544  1.0000
  C   C79       1.0  0.59419  0.90977  0.29585  1.0000
  C   C80       1.0  0.66429  0.16578  0.24699  1.0000
  C   C81       1.0  0.63798  0.14508  0.25004  1.0000
  C   C82       1.0  0.71140  0.22064  0.26596  1.0000
  C   C83       1.0  0.73686  0.24286  0.26502  1.0000
  C   C84       1.0  0.50345  0.14603  0.26342  1.0000
  C   C85       1.0  0.49806  0.16688  0.26634  1.0000
  C   C86       1.0  0.47118  0.22428  0.29516  1.0000
  C   C87       1.0  0.47386  0.20169  0.29480  1.0000
  H   H44       1.0  0.45778  0.22494  0.25275  1.0000
  H   H45       1.0  0.46220  0.18660  0.25249  1.0000
  H   H46       1.0  0.49680  0.17502  0.20726  1.0000
  H   H47       1.0  0.50565  0.13938  0.20276  1.0000
  H   H48       1.0  0.62789  0.13772  0.19149  1.0000
  H   H49       1.0  0.67273  0.17267  0.18583  1.0000
  H   H50       1.0  0.55793  0.99350  0.20298  1.0000
  H   H51       1.0  0.56732  0.95819  0.20742  1.0000
  H   H52       1.0  0.60782  0.90954  0.25384  1.0000
  H   H53       1.0  0.60246  0.94733  0.25352  1.0000
  H   H54       1.0  0.36684  0.91135  0.22616  1.0000
  H   H55       1.0  0.32425  0.87320  0.22519  1.0000
  H   H56       1.0  0.39047  0.95969  0.18608  1.0000
  H   H57       1.0  0.43515  0.99498  0.19176  1.0000
  H   H58       1.0  0.69720  0.22093  0.22673  1.0000
  H   H59       1.0  0.74016  0.25853  0.22569  1.0000
  N   N5        1.0  0.27420  0.51785  0.26433  1.0000
  C   C88       1.0  0.25117  0.51747  0.24900  1.0000
  C   C89       1.0  0.24386  0.51593  0.16609  1.0000
  N   N6        1.0  0.23742  0.51450  0.09283  1.0000
  N   N7        1.0  0.58172  0.85543  0.26700  1.0000
  C   C90       1.0  0.58209  0.83281  0.25167  1.0000
  C   C91       1.0  0.58365  0.82721  0.16877  1.0000
  N   N8        1.0  0.58510  0.82236  0.09553  1.0000
  C   C92       1.0  0.23464  0.81514  0.34671  1.0000
  N   N9        1.0  0.24428  0.82545  0.26466  1.0000
  C   C93       1.0  0.26692  0.84849  0.24978  1.0000
  C   C94       1.0  0.28203  0.86321  0.32447  1.0000
  C   C95       1.0  0.27265  0.85590  0.16701  1.0000
  N   N10       1.0  0.27761  0.86242  0.09386  1.0000
  N   N11       1.0  0.79469  0.61475  0.26405  1.0000
  C   C96       1.0  0.81737  0.61450  0.24870  1.0000
  C   C97       1.0  0.82442  0.61578  0.16576  1.0000
  N   N12       1.0  0.83062  0.61699  0.09247  1.0000
  N   N13       1.0  0.48486  0.27905  0.26668  1.0000
  C   C98       1.0  0.48508  0.30200  0.25135  1.0000
  C   C99       1.0  0.48381  0.30793  0.16841  1.0000
  N   N14       1.0  0.48261  0.31309  0.09512  1.0000
  C   C100      1.0  0.83042  0.31480  0.34643  1.0000
  N   N15       1.0  0.82044  0.30482  0.26436  1.0000
  C   C101      1.0  0.79747  0.28211  0.24945  1.0000
  C   C102      1.0  0.78237  0.26739  0.32413  1.0000
  C   C103      1.0  0.79143  0.27497  0.16663  1.0000
  N   N16       1.0  0.78619  0.26868  0.09344  1.0000
  C   C104      1.0  0.09116  0.61241  0.33471  1.0000
  C   C105      1.0  0.13411  0.53083  0.40578  1.0000
  C   C106      1.0  0.11326  0.53624  0.40862  1.0000
  C   C107      1.0  0.16892  0.50663  0.37749  1.0000
  C   C108      1.0  0.19149  0.50394  0.37717  1.0000
  C   C109      1.0  0.21286  0.51929  0.31938  1.0000
  C   C110      1.0  0.13302  0.69711  0.42425  1.0000
  C   C111      1.0  0.11232  0.67080  0.42136  1.0000
  C   C112      1.0  0.21011  0.76965  0.40592  1.0000
  C   C113      1.0  0.18788  0.74419  0.40510  1.0000
  C   C114      1.0  0.95392  0.59286  0.40839  1.0000
  C   C115      1.0  0.93327  0.59856  0.40558  1.0000
  C   C116      1.0  0.87699  0.62693  0.37648  1.0000
  C   C117      1.0  0.89923  0.62368  0.37685  1.0000
  C   C118      1.0  0.95465  0.45790  0.42118  1.0000
  C   C119      1.0  0.93374  0.43169  0.42411  1.0000
  C   C120      1.0  0.87845  0.38531  0.40548  1.0000
  C   C121      1.0  0.85590  0.36006  0.40631  1.0000
  H   H60       1.0  0.84044  0.35698  0.44604  1.0000
  H   H61       1.0  0.87859  0.39955  0.44523  1.0000
  H   H62       1.0  0.92694  0.42314  0.48523  1.0000
  H   H63       1.0  0.96224  0.46782  0.47979  1.0000
  H   H64       1.0  0.96075  0.59067  0.46902  1.0000
  H   H65       1.0  0.92543  0.60005  0.46472  1.0000
  H   H66       1.0  0.13394  0.59302  0.33225  1.0000
  H   H67       1.0  0.10495  0.66074  0.47996  1.0000
  H   H68       1.0  0.13992  0.70558  0.48536  1.0000
  H   H69       1.0  0.18817  0.73001  0.44445  1.0000
  H   H70       1.0  0.22577  0.77297  0.44537  1.0000
  H   H71       1.0  0.10660  0.53845  0.46925  1.0000
  H   H72       1.0  0.14224  0.52959  0.46489  1.0000
  H   H73       1.0  0.19215  0.49053  0.41961  1.0000
  H   H74       1.0  0.15382  0.49498  0.41980  1.0000
  H   H75       1.0  0.91455  0.63519  0.41876  1.0000
  H   H76       1.0  0.87677  0.64056  0.41850  1.0000
  C   C122      1.0  0.61384  0.63300  0.33694  1.0000
  C   C123      1.0  0.60024  0.64661  0.33536  1.0000
  C   C124      1.0  0.57327  0.62826  0.33508  1.0000
  N   N17       1.0  0.57155  0.60431  0.33614  1.0000
  C   C125      1.0  0.59550  0.60603  0.33720  1.0000
  C   C126      1.0  0.60187  0.58557  0.33813  1.0000
  C   C127      1.0  0.58316  0.55818  0.33706  1.0000
  N   N18       1.0  0.55659  0.54652  0.33592  1.0000
  C   C128      1.0  0.51753  0.50125  0.33383  1.0000
  C   C129      1.0  0.49709  0.50763  0.33491  1.0000
  N   N19       1.0  0.49881  0.53158  0.33606  1.0000
  C   C130      1.0  0.47486  0.52986  0.33724  1.0000
  C   C131      1.0  0.45651  0.50289  0.33694  1.0000
  C   C132      1.0  0.47012  0.48929  0.33524  1.0000
  C   C133      1.0  0.46849  0.55031  0.33832  1.0000
  C   C134      1.0  0.48719  0.57770  0.33733  1.0000
  N   N20       1.0  0.51375  0.58937  0.33624  1.0000
  C   C135      1.0  0.52542  0.61594  0.33514  1.0000
  C   C136      1.0  0.50498  0.62169  0.33541  1.0000
  C   C137      1.0  0.48143  0.59814  0.33701  1.0000
  C   C138      1.0  0.55281  0.63464  0.33411  1.0000
  C   C139      1.0  0.56015  0.66177  0.33160  1.0000
  C   C140      1.0  0.57091  0.71495  0.32607  1.0000
  C   C141      1.0  0.56875  0.70208  0.40853  1.0000
  C   C142      1.0  0.56338  0.67583  0.41139  1.0000
  C   C143      1.0  0.57463  0.74100  0.32338  1.0000
  C   C144      1.0  0.59296  0.76115  0.38021  1.0000
  C   C145      1.0  0.59565  0.78642  0.37988  1.0000
  C   C146      1.0  0.58030  0.79255  0.32206  1.0000
  C   C147      1.0  0.44135  0.54295  0.34089  1.0000
  C   C148      1.0  0.38798  0.53155  0.34639  1.0000
  C   C149      1.0  0.40241  0.53474  0.42600  1.0000
  C   C150      1.0  0.42873  0.54034  0.42345  1.0000
  C   C151      1.0  0.36175  0.52732  0.34905  1.0000
  C   C152      1.0  0.32987  0.53929  0.40632  1.0000
  C   C153      1.0  0.35534  0.54255  0.40586  1.0000
  C   C154      1.0  0.51017  0.47412  0.33130  1.0000
  C   C155      1.0  0.50671  0.45986  0.41111  1.0000
  C   C156      1.0  0.50102  0.43351  0.40830  1.0000
  C   C157      1.0  0.49877  0.42074  0.32589  1.0000
  C   C158      1.0  0.49456  0.39452  0.32328  1.0000
  C   C159      1.0  0.48777  0.34252  0.32182  1.0000
  C   C160      1.0  0.47267  0.34892  0.37920  1.0000
  C   C161      1.0  0.47591  0.37441  0.37958  1.0000
  C   C162      1.0  0.62900  0.59291  0.34068  1.0000
  C   C163      1.0  0.64176  0.59549  0.42326  1.0000
  C   C164      1.0  0.68218  0.60366  0.34626  1.0000
  C   C165      1.0  0.66797  0.60078  0.42586  1.0000
  C   C166      1.0  0.70823  0.60741  0.34899  1.0000
  C   C167      1.0  0.71437  0.59195  0.40636  1.0000
  C   C168      1.0  0.73962  0.59466  0.40675  1.0000
  H   H77       1.0  0.74274  0.58220  0.44629  1.0000
  H   H78       1.0  0.70017  0.57776  0.44618  1.0000
  H   H79       1.0  0.67657  0.60238  0.48686  1.0000
  H   H80       1.0  0.63188  0.59299  0.48198  1.0000
  H   H81       1.0  0.63393  0.64170  0.33737  1.0000
  H   H82       1.0  0.60894  0.66670  0.33489  1.0000
  H   H83       1.0  0.55516  0.58793  0.33612  1.0000
  H   H84       1.0  0.51519  0.54796  0.33603  1.0000
  H   H85       1.0  0.56375  0.49599  0.33475  1.0000
  H   H86       1.0  0.50893  0.46875  0.47175  1.0000
  H   H87       1.0  0.49954  0.42406  0.46744  1.0000
  H   H88       1.0  0.43643  0.49419  0.33752  1.0000
  H   H89       1.0  0.50658  0.63989  0.33489  1.0000
  H   H90       1.0  0.46323  0.59653  0.33744  1.0000
  H   H91       1.0  0.43874  0.54296  0.48218  1.0000
  H   H92       1.0  0.39389  0.53307  0.48700  1.0000
  H   H93       1.0  0.36947  0.55693  0.44536  1.0000
  H   H94       1.0  0.32650  0.55156  0.44555  1.0000
  H   H95       1.0  0.56114  0.66683  0.47203  1.0000
  H   H96       1.0  0.57002  0.71135  0.46763  1.0000
  H   H97       1.0  0.60904  0.80040  0.42234  1.0000
  H   H98       1.0  0.60462  0.75763  0.42253  1.0000
  H   H99       1.0  0.46440  0.37813  0.42148  1.0000
  H   H100      1.0  0.45904  0.33498  0.42120  1.0000
  C   C169      1.0  0.46659  0.07978  0.33916  1.0000
  C   C170      1.0  0.45298  0.05256  0.33741  1.0000
  C   C171      1.0  0.47133  0.04394  0.33719  1.0000
  N   N21       1.0  0.49528  0.06617  0.33845  1.0000
  C   C172      1.0  0.49356  0.08840  0.33956  1.0000
  C   C173      1.0  0.51401  0.11523  0.34059  1.0000
  C   C174      1.0  0.54140  0.12392  0.33948  1.0000
  N   N22       1.0  0.55307  0.10902  0.33827  1.0000
  C   C175      1.0  0.57964  0.12392  0.33698  1.0000
  C   C176      1.0  0.58540  0.15012  0.33727  1.0000
  C   C177      1.0  0.56185  0.15012  0.33912  1.0000
  C   C178      1.0  0.59833  0.11523  0.33585  1.0000
  C   C179      1.0  0.59196  0.08840  0.33708  1.0000
  N   N23       1.0  0.56801  0.06618  0.33846  1.0000
  C   C180      1.0  0.56974  0.04395  0.33966  1.0000
  C   C181      1.0  0.59671  0.05257  0.33927  1.0000
  C   C182      1.0  0.61031  0.07978  0.33735  1.0000
  C   C183      1.0  0.54929  0.01712  0.34081  1.0000
  C   C184      1.0  0.52190  0.00843  0.33972  1.0000
  N   N24       1.0  0.51023  0.02333  0.33855  1.0000
  C   C185      1.0  0.48366  0.00843  0.33728  1.0000
  C   C186      1.0  0.47791  0.98223  0.33754  1.0000
  C   C187      1.0  0.50146  0.98223  0.33931  1.0000
  C   C188      1.0  0.46496  0.01712  0.33610  1.0000
  C   C189      1.0  0.43783  0.99733  0.33312  1.0000
  C   C190      1.0  0.38466  0.95492  0.32658  1.0000
  C   C191      1.0  0.39741  0.96537  0.40928  1.0000
  C   C192      1.0  0.42366  0.98624  0.41265  1.0000
  C   C193      1.0  0.35862  0.93262  0.32336  1.0000
  C   C194      1.0  0.33838  0.93061  0.37988  1.0000
  C   C195      1.0  0.31311  0.90804  0.37902  1.0000
  C   C196      1.0  0.30707  0.88674  0.32099  1.0000
  C   C197      1.0  0.55665  0.99734  0.34341  1.0000
  C   C198      1.0  0.56806  0.95536  0.34898  1.0000
  C   C199      1.0  0.56487  0.96646  0.42858  1.0000
  C   C200      1.0  0.55926  0.98717  0.42599  1.0000
  C   C201      1.0  0.57229  0.93336  0.35168  1.0000
  C   C202      1.0  0.57907  0.88814  0.35316  1.0000
  C   C203      1.0  0.56033  0.88941  0.40906  1.0000
  C   C204      1.0  0.55708  0.91162  0.40860  1.0000
  C   C205      1.0  0.62546  0.13501  0.33283  1.0000
  C   C206      1.0  0.63984  0.14575  0.41235  1.0000
  C   C207      1.0  0.66619  0.16641  0.40901  1.0000
  C   C208      1.0  0.67883  0.17698  0.32634  1.0000
  C   C209      1.0  0.70506  0.19898  0.32315  1.0000
  C   C210      1.0  0.75706  0.24419  0.32066  1.0000
  C   C211      1.0  0.75074  0.22264  0.37830  1.0000
  C   C212      1.0  0.72524  0.20039  0.37920  1.0000
  C   C213      1.0  0.50668  0.13502  0.34318  1.0000
  C   C214      1.0  0.50411  0.14503  0.42578  1.0000
  C   C215      1.0  0.49593  0.17744  0.34882  1.0000
  C   C216      1.0  0.49881  0.16595  0.42841  1.0000
  C   C217      1.0  0.49220  0.19975  0.35158  1.0000
  C   C218      1.0  0.50766  0.22122  0.40896  1.0000
  C   C219      1.0  0.50499  0.24378  0.40930  1.0000
  C   C220      1.0  0.48656  0.24564  0.35293  1.0000
  H   H101      1.0  0.51744  0.25928  0.44890  1.0000
  H   H102      1.0  0.52186  0.22113  0.44874  1.0000
  H   H103      1.0  0.49724  0.17283  0.48943  1.0000
  H   H104      1.0  0.50660  0.13753  0.48449  1.0000
  H   H105      1.0  0.45789  0.09117  0.33958  1.0000
  H   H106      1.0  0.43290  0.04118  0.33682  1.0000
  H   H107      1.0  0.51166  0.06617  0.33851  1.0000
  H   H108      1.0  0.55163  0.06617  0.33849  1.0000
  H   H109      1.0  0.56024  0.16671  0.33962  1.0000
  H   H110      1.0  0.60359  0.16670  0.33674  1.0000
  H   H111      1.0  0.63105  0.13903  0.47317  1.0000
  H   H112      1.0  0.67573  0.17433  0.46796  1.0000
  H   H113      1.0  0.63039  0.09117  0.33664  1.0000
  H   H114      1.0  0.60541  0.04119  0.33970  1.0000
  H   H115      1.0  0.45972  0.96564  0.33688  1.0000
  H   H116      1.0  0.50307  0.96565  0.33974  1.0000
  H   H117      1.0  0.55666  0.99446  0.48470  1.0000
  H   H118      1.0  0.56654  0.95949  0.48959  1.0000
  H   H119      1.0  0.54267  0.91128  0.44797  1.0000
  H   H120      1.0  0.54803  0.87368  0.44818  1.0000
  H   H121      1.0  0.43256  0.99282  0.47346  1.0000
  H   H122      1.0  0.38805  0.95719  0.46821  1.0000
  H   H123      1.0  0.29906  0.90733  0.42125  1.0000
  H   H124      1.0  0.34183  0.94566  0.42234  1.0000
  H   H125      1.0  0.72158  0.18514  0.42132  1.0000
  H   H126      1.0  0.76473  0.22292  0.42017  1.0000
  C   C221      1.0  0.28443  0.51840  0.34658  1.0000
  C   C222      1.0  0.23639  0.51777  0.32338  1.0000
  N   N25       1.0  0.24627  0.51761  0.40564  1.0000
  C   C223      1.0  0.26923  0.51784  0.42097  1.0000
  C   C224      1.0  0.27517  0.51660  0.50392  1.0000
  N   N26       1.0  0.28034  0.51542  0.57722  1.0000
  C   C225      1.0  0.58118  0.86494  0.34924  1.0000
  C   C226      1.0  0.58181  0.81758  0.32605  1.0000
  N   N27       1.0  0.58197  0.82746  0.40831  1.0000
  C   C227      1.0  0.58173  0.85015  0.42364  1.0000
  C   C228      1.0  0.58300  0.85719  0.50659  1.0000
  N   N28       1.0  0.58419  0.86339  0.57987  1.0000
  N   N29       1.0  0.27203  0.85324  0.40653  1.0000
  C   C229      1.0  0.24932  0.83026  0.42141  1.0000
  C   C230      1.0  0.24214  0.82425  0.50422  1.0000
  N   N30       1.0  0.23582  0.81903  0.57738  1.0000
  C   C231      1.0  0.78482  0.61459  0.34631  1.0000
  C   C232      1.0  0.83217  0.61393  0.32309  1.0000
  N   N31       1.0  0.82266  0.61449  0.40534  1.0000
  C   C233      1.0  0.80005  0.61487  0.42069  1.0000
  C   C234      1.0  0.79444  0.61642  0.50360  1.0000
  N   N32       1.0  0.78959  0.61786  0.57684  1.0000
  C   C235      1.0  0.48506  0.26918  0.34894  1.0000
  C   C236      1.0  0.48566  0.31721  0.32575  1.0000
  N   N33       1.0  0.48513  0.30699  0.40800  1.0000
  C   C237      1.0  0.48476  0.28396  0.42332  1.0000
  C   C238      1.0  0.48324  0.27665  0.50623  1.0000
  N   N34       1.0  0.48182  0.27022  0.57949  1.0000
  N   N35       1.0  0.79270  0.27700  0.40619  1.0000
  C   C239      1.0  0.81574  0.29965  0.42109  1.0000
  C   C240      1.0  0.82316  0.30534  0.50388  1.0000
  N   N36       1.0  0.82970  0.31027  0.57702  1.0000
