data_image0
_chemical_formula_structural       C2NC2OHC2NC2OHC2NC2OHNCHNCHNCHC2NC2OHC2NC2OHC2NC2OHC2NC2OHC2NC2OHC2NC2OHNCHNCHNCHNCHNCHNCHC2NC2OHC2NC2OHC2NC2OHC2NC2OHC2NC2OHC2NC2OHC6H3C6H3C6H3C6H3C6H3C6H3C6H3C6H3C6H3C6H3C6H3C6H3C6H3C6H3C6H3C6H3NCHNCHNCHC2NC2OHC2NC2OHC2NC2OHNCHNCHNCHNCHNCHNCHC2NC2OHC2NC2OHC2NC2OHC2NC2OHC2NC2OHC2NC2OHNCHNCHNCHNCHNCHNCH
_chemical_formula_sum              "C216 N48 O24 H96"
_cell_length_a       41.9923
_cell_length_b       41.9923
_cell_length_c       14.8877
_cell_angle_alpha    90
_cell_angle_beta     90
_cell_angle_gamma    120

_space_group_name_H-M_alt    "P 1"
_space_group_IT_number       1

loop_
  _space_group_symop_operation_xyz
  'x, y, z'

loop_
  _atom_site_type_symbol
  _atom_site_label
  _atom_site_symmetry_multiplicity
  _atom_site_fract_x
  _atom_site_fract_y
  _atom_site_fract_z
  _atom_site_occupancy
  C   C1        1.0  0.00556  0.14026  0.33575  1.0000
  C   C2        1.0  0.00796  0.07315  0.34227  1.0000
  N   N1        1.0  0.98194  0.07673  0.29602  1.0000
  C   C3        1.0  0.97921  0.10783  0.28945  1.0000
  C   C4        1.0  0.95261  0.10672  0.23243  1.0000
  O   O1        1.0  0.92744  0.07714  0.20659  1.0000
  H   H1        1.0  0.96124  0.12711  0.18844  1.0000
  C   C5        1.0  0.87045  0.86544  0.33204  1.0000
  C   C6        1.0  0.93722  0.93527  0.33998  1.0000
  N   N2        1.0  0.93402  0.90585  0.29361  1.0000
  C   C7        1.0  0.90312  0.87191  0.28639  1.0000
  C   C8        1.0  0.90477  0.84686  0.22907  1.0000
  O   O2        1.0  0.93439  0.85134  0.20333  1.0000
  H   H2        1.0  0.88437  0.83431  0.18529  1.0000
  C   C9        1.0  0.14472  0.00535  0.33487  1.0000
  C   C10       1.0  0.07501  0.00245  0.34133  1.0000
  N   N3        1.0  0.10494  0.02937  0.29789  1.0000
  C   C11       1.0  0.13889  0.03240  0.29153  1.0000
  C   C12       1.0  0.16480  0.06013  0.23774  1.0000
  O   O3        1.0  0.16053  0.08557  0.21334  1.0000
  H   H3        1.0  0.17817  0.05314  0.19431  1.0000
  N   N4        1.0  0.10096  0.29174  0.30054  1.0000
  C   C13       1.0  0.12956  0.32704  0.29714  1.0000
  H   H4        1.0  0.14809  0.33472  0.24581  1.0000
  N   N5        1.0  0.70539  0.77020  0.28515  1.0000
  C   C14       1.0  0.66937  0.76023  0.28284  1.0000
  H   H5        1.0  0.65234  0.74011  0.23922  1.0000
  N   N6        1.0  0.24078  0.93625  0.28327  1.0000
  C   C15       1.0  0.25065  0.91009  0.28131  1.0000
  H   H6        1.0  0.27107  0.91330  0.23856  1.0000
  C   C16       1.0  0.28356  0.07018  0.34723  1.0000
  C   C17       1.0  0.35876  0.12595  0.34784  1.0000
  N   N7        1.0  0.33289  0.12842  0.29777  1.0000
  C   C18       1.0  0.29618  0.10272  0.29479  1.0000
  C   C19       1.0  0.27395  0.10811  0.23549  1.0000
  O   O4        1.0  0.28506  0.13807  0.19987  1.0000
  H   H7        1.0  0.25696  0.08684  0.19778  1.0000
  C   C20       1.0  0.79509  0.72676  0.32168  1.0000
  C   C21       1.0  0.77829  0.65278  0.33038  1.0000
  N   N8        1.0  0.76298  0.66477  0.26839  1.0000
  C   C22       1.0  0.77037  0.70009  0.25897  1.0000
  C   C23       1.0  0.75312  0.70798  0.18996  1.0000
  O   O5        1.0  0.73274  0.68358  0.13829  1.0000
  H   H8        1.0  0.76689  0.73269  0.16222  1.0000
  C   C24       1.0  0.94078  0.21444  0.34223  1.0000
  C   C25       1.0  0.88502  0.23375  0.34438  1.0000
  N   N9        1.0  0.88269  0.20582  0.29284  1.0000
  C   C26       1.0  0.90841  0.19484  0.28910  1.0000
  C   C27       1.0  0.90330  0.16755  0.22884  1.0000
  O   O6        1.0  0.87341  0.14927  0.19242  1.0000
  H   H9        1.0  0.92483  0.17267  0.19122  1.0000
  C   C28       1.0  0.26005  0.45809  0.34440  1.0000
  C   C29       1.0  0.33732  0.49591  0.33569  1.0000
  N   N10       1.0  0.31583  0.46618  0.28329  1.0000
  C   C30       1.0  0.27841  0.44666  0.28337  1.0000
  C   C31       1.0  0.26077  0.41863  0.22138  1.0000
  O   O7        1.0  0.27808  0.40743  0.17868  1.0000
  H   H10       1.0  0.23963  0.41748  0.18865  1.0000
  C   C32       1.0  0.55357  0.80444  0.36024  1.0000
  C   C33       1.0  0.51548  0.84363  0.35177  1.0000
  N   N11       1.0  0.54549  0.85227  0.30015  1.0000
  C   C34       1.0  0.56518  0.83457  0.30021  1.0000
  C   C35       1.0  0.59332  0.84534  0.23838  1.0000
  O   O8        1.0  0.60531  0.87463  0.19869  1.0000
  H   H11       1.0  0.59388  0.82559  0.20305  1.0000
  C   C36       1.0  0.20594  0.74959  0.36194  1.0000
  C   C37       1.0  0.16669  0.67215  0.35664  1.0000
  N   N12       1.0  0.15792  0.69323  0.30420  1.0000
  C   C38       1.0  0.17561  0.73063  0.30268  1.0000
  C   C39       1.0  0.16470  0.74774  0.24027  1.0000
  O   O9        1.0  0.13524  0.72975  0.20166  1.0000
  H   H12       1.0  0.18431  0.76729  0.20315  1.0000
  N   N13       1.0  0.49119  0.27770  0.27922  1.0000
  C   C40       1.0  0.51003  0.31487  0.27534  1.0000
  H   H13       1.0  0.53225  0.32787  0.23374  1.0000
  N   N14       1.0  0.79505  0.51870  0.29558  1.0000
  C   C41       1.0  0.81333  0.49982  0.29376  1.0000
  H   H14       1.0  0.80468  0.47784  0.25158  1.0000
  N   N15       1.0  0.73326  0.21424  0.28038  1.0000
  C   C42       1.0  0.69609  0.19599  0.27799  1.0000
  H   H15       1.0  0.68285  0.20502  0.23662  1.0000
  N   N16       1.0  0.12660  0.51180  0.31487  1.0000
  C   C43       1.0  0.13189  0.48255  0.31370  1.0000
  H   H16       1.0  0.11669  0.46111  0.27123  1.0000
  N   N17       1.0  0.49669  0.61681  0.29313  1.0000
  C   C44       1.0  0.52572  0.65147  0.29372  1.0000
  H   H17       1.0  0.54702  0.65841  0.25029  1.0000
  N   N18       1.0  0.39392  0.88048  0.29931  1.0000
  C   C45       1.0  0.35922  0.87473  0.29768  1.0000
  H   H18       1.0  0.35253  0.88887  0.25293  1.0000
  C   C46       1.0  0.54898  0.14459  0.32638  1.0000
  C   C47       1.0  0.49046  0.15912  0.33363  1.0000
  N   N19       1.0  0.52123  0.17955  0.28333  1.0000
  C   C48       1.0  0.55052  0.17412  0.27624  1.0000
  C   C49       1.0  0.57868  0.19598  0.21767  1.0000
  O   O10       1.0  0.57961  0.22270  0.18219  1.0000
  H   H19       1.0  0.58893  0.18365  0.18034  1.0000
  C   C50       1.0  0.60501  0.46305  0.31577  1.0000
  C   C51       1.0  0.67792  0.52199  0.32301  1.0000
  N   N20       1.0  0.66813  0.49052  0.27619  1.0000
  C   C52       1.0  0.63347  0.46105  0.26898  1.0000
  C   C53       1.0  0.62760  0.43201  0.21391  1.0000
  O   O11       1.0  0.65401  0.43141  0.18113  1.0000
  H   H20       1.0  0.60555  0.42152  0.17487  1.0000
  C   C54       1.0  0.86575  0.40509  0.33495  1.0000
  C   C55       1.0  0.85169  0.33220  0.33708  1.0000
  N   N21       1.0  0.83104  0.34279  0.28858  1.0000
  C   C56       1.0  0.83623  0.37748  0.28399  1.0000
  C   C57       1.0  0.81420  0.38424  0.22693  1.0000
  O   O12       1.0  0.78734  0.35846  0.19191  1.0000
  H   H21       1.0  0.82701  0.40670  0.18941  1.0000
  C   C58       1.0  0.04439  0.56584  0.31997  1.0000
  C   C59       1.0  0.96843  0.53004  0.32175  1.0000
  N   N22       1.0  0.98699  0.52207  0.25949  1.0000
  C   C60       1.0  0.02411  0.53915  0.25309  1.0000
  C   C61       1.0  0.03967  0.52857  0.18563  1.0000
  O   O13       1.0  0.02023  0.50638  0.12857  1.0000
  H   H22       1.0  0.06450  0.54714  0.16407  1.0000
  C   C62       1.0  0.44378  0.48014  0.29669  1.0000
  C   C63       1.0  0.47989  0.44025  0.29904  1.0000
  N   N23       1.0  0.48795  0.46687  0.23701  1.0000
  C   C64       1.0  0.47076  0.48681  0.23041  1.0000
  C   C65       1.0  0.48143  0.51305  0.16319  1.0000
  O   O14       1.0  0.50395  0.51611  0.10674  1.0000
  H   H23       1.0  0.46283  0.51917  0.14116  1.0000
  C   C66       1.0  0.53015  0.96527  0.30928  1.0000
  C   C67       1.0  0.57016  0.04124  0.31040  1.0000
  N   N24       1.0  0.54351  0.02258  0.24851  1.0000
  C   C68       1.0  0.52352  0.98543  0.24242  1.0000
  C   C69       1.0  0.49732  0.96962  0.17502  1.0000
  O   O15       1.0  0.49547  0.98932  0.11715  1.0000
  H   H24       1.0  0.49146  0.94497  0.15333  1.0000
  C   C70       1.0  0.00749  0.03840  0.34317  1.0000
  C   C71       1.0  0.04039  0.03654  0.34297  1.0000
  C   C72       1.0  0.04066  0.00280  0.34260  1.0000
  C   C73       1.0  0.00590  0.96990  0.34161  1.0000
  C   C74       1.0  0.97188  0.96964  0.34191  1.0000
  C   C75       1.0  0.97373  0.00440  0.34229  1.0000
  H   H25       1.0  0.00528  0.94525  0.33996  1.0000
  H   H26       1.0  0.94968  0.00500  0.34116  1.0000
  H   H27       1.0  0.06503  0.06060  0.34232  1.0000
  C   C76       1.0  0.04138  0.24382  0.35107  1.0000
  C   C77       1.0  0.00783  0.24366  0.34288  1.0000
  C   C78       1.0  0.97329  0.21106  0.34051  1.0000
  C   C79       1.0  0.97339  0.17732  0.34039  1.0000
  C   C80       1.0  0.00635  0.17535  0.33915  1.0000
  C   C81       1.0  0.04015  0.20943  0.34634  1.0000
  H   H28       1.0  0.94862  0.15360  0.34457  1.0000
  H   H29       1.0  0.06443  0.20934  0.34960  1.0000
  H   H30       1.0  0.00860  0.26845  0.34085  1.0000
  C   C82       1.0  0.76662  0.79836  0.34111  1.0000
  C   C83       1.0  0.76660  0.76471  0.33988  1.0000
  C   C84       1.0  0.79890  0.76253  0.33205  1.0000
  C   C85       1.0  0.83295  0.79595  0.33389  1.0000
  C   C86       1.0  0.83535  0.83110  0.33483  1.0000
  C   C87       1.0  0.80139  0.83120  0.33889  1.0000
  H   H31       1.0  0.85637  0.79427  0.33341  1.0000
  H   H32       1.0  0.80183  0.85576  0.33697  1.0000
  H   H33       1.0  0.74195  0.74062  0.34400  1.0000
  C   C88       1.0  0.21226  0.96916  0.33898  1.0000
  C   C89       1.0  0.24575  0.00299  0.34166  1.0000
  C   C90       1.0  0.24770  0.03757  0.34436  1.0000
  C   C91       1.0  0.21387  0.03748  0.34417  1.0000
  C   C92       1.0  0.17902  0.00464  0.33802  1.0000
  C   C93       1.0  0.17923  0.97075  0.33734  1.0000
  H   H34       1.0  0.21483  0.06212  0.35152  1.0000
  H   H35       1.0  0.15481  0.94658  0.33250  1.0000
  H   H36       1.0  0.26986  0.00242  0.34220  1.0000
  C   C94       1.0  0.17027  0.45629  0.36474  1.0000
  C   C95       1.0  0.20803  0.46812  0.35848  1.0000
  C   C96       1.0  0.22121  0.44321  0.35056  1.0000
  C   C97       1.0  0.19517  0.40504  0.34954  1.0000
  C   C98       1.0  0.15689  0.39179  0.35629  1.0000
  C   C99       1.0  0.14501  0.41797  0.36363  1.0000
  H   H37       1.0  0.20427  0.38656  0.34753  1.0000
  H   H38       1.0  0.11748  0.40903  0.36840  1.0000
  H   H39       1.0  0.22642  0.49581  0.35595  1.0000
  C   C100      1.0  0.55273  0.71496  0.35492  1.0000
  C   C101      1.0  0.54189  0.74165  0.36138  1.0000
  C   C102      1.0  0.56760  0.77969  0.36204  1.0000
  C   C103      1.0  0.60557  0.79095  0.35923  1.0000
  C   C104      1.0  0.61782  0.76517  0.35040  1.0000
  C   C105      1.0  0.59077  0.72724  0.34795  1.0000
  H   H40       1.0  0.62457  0.81840  0.36079  1.0000
  H   H41       1.0  0.59893  0.70804  0.34434  1.0000
  H   H42       1.0  0.51434  0.73308  0.36091  1.0000
  C   C106      1.0  0.29535  0.83835  0.35651  1.0000
  C   C107      1.0  0.26865  0.80085  0.36320  1.0000
  C   C108      1.0  0.23059  0.78845  0.36263  1.0000
  C   C109      1.0  0.21938  0.81520  0.35823  1.0000
  C   C110      1.0  0.24518  0.85324  0.34902  1.0000
  C   C111      1.0  0.28311  0.86410  0.34792  1.0000
  H   H43       1.0  0.19193  0.80677  0.35921  1.0000
  H   H44       1.0  0.30234  0.89145  0.34436  1.0000
  H   H45       1.0  0.27727  0.78191  0.36403  1.0000
  C   C112      1.0  0.46238  0.16872  0.33642  1.0000
  C   C113      1.0  0.47273  0.20617  0.33270  1.0000
  C   C114      1.0  0.44679  0.21823  0.33210  1.0000
  C   C115      1.0  0.40893  0.19110  0.33453  1.0000
  C   C116      1.0  0.39706  0.15308  0.34202  1.0000
  C   C117      1.0  0.42442  0.14261  0.34242  1.0000
  H   H46       1.0  0.38965  0.19917  0.33222  1.0000
  H   H47       1.0  0.41653  0.11528  0.34311  1.0000
  H   H48       1.0  0.50021  0.22535  0.33307  1.0000
  C   C118      1.0  0.71566  0.54963  0.32948  1.0000
  C   C119      1.0  0.74197  0.53835  0.33757  1.0000
  C   C120      1.0  0.78006  0.56360  0.34320  1.0000
  C   C121      1.0  0.79176  0.60166  0.34185  1.0000
  C   C122      1.0  0.76633  0.61440  0.33479  1.0000
  C   C123      1.0  0.72835  0.58786  0.32833  1.0000
  H   H49       1.0  0.81928  0.62040  0.34172  1.0000
  H   H50       1.0  0.70957  0.59649  0.32192  1.0000
  H   H51       1.0  0.73298  0.51075  0.34126  1.0000
  C   C124      1.0  0.84220  0.29455  0.33770  1.0000
  C   C125      1.0  0.80476  0.26744  0.33413  1.0000
  C   C126      1.0  0.79282  0.22948  0.33202  1.0000
  C   C127      1.0  0.81993  0.21876  0.33262  1.0000
  C   C128      1.0  0.85792  0.24493  0.33980  1.0000
  C   C129      1.0  0.86838  0.28275  0.34193  1.0000
  H   H52       1.0  0.81186  0.19141  0.32961  1.0000
  H   H53       1.0  0.89569  0.30220  0.34257  1.0000
  H   H54       1.0  0.78552  0.27565  0.33587  1.0000
  C   C130      1.0  0.08218  0.58030  0.33491  1.0000
  C   C131      1.0  0.09613  0.55643  0.34836  1.0000
  C   C132      1.0  0.13406  0.56957  0.36073  1.0000
  C   C133      1.0  0.15777  0.60836  0.36357  1.0000
  C   C134      1.0  0.14415  0.63315  0.35410  1.0000
  C   C135      1.0  0.10607  0.61838  0.33994  1.0000
  H   H55       1.0  0.18551  0.61882  0.36856  1.0000
  H   H56       1.0  0.09531  0.63542  0.33264  1.0000
  H   H57       1.0  0.07794  0.52868  0.34898  1.0000
  C   C136      1.0  0.42917  0.50337  0.31155  1.0000
  C   C137      1.0  0.45296  0.54119  0.32547  1.0000
  C   C138      1.0  0.43963  0.56574  0.33908  1.0000
  C   C139      1.0  0.40089  0.55061  0.34218  1.0000
  C   C140      1.0  0.37623  0.51225  0.33198  1.0000
  C   C141      1.0  0.39105  0.48904  0.31679  1.0000
  H   H58       1.0  0.39042  0.56785  0.34841  1.0000
  H   H59       1.0  0.37403  0.46126  0.30925  1.0000
  H   H60       1.0  0.48074  0.55092  0.32600  1.0000
  C   C142      1.0  0.50712  0.92740  0.32426  1.0000
  C   C143      1.0  0.46916  0.91302  0.33642  1.0000
  C   C144      1.0  0.44481  0.87508  0.34977  1.0000
  C   C145      1.0  0.46027  0.85178  0.35496  1.0000
  C   C146      1.0  0.49877  0.86586  0.34692  1.0000
  C   C147      1.0  0.52175  0.90392  0.33159  1.0000
  H   H61       1.0  0.44319  0.82404  0.36104  1.0000
  H   H62       1.0  0.54962  0.91494  0.32531  1.0000
  H   H63       1.0  0.45916  0.93084  0.33569  1.0000
  C   C148      1.0  0.58520  0.07944  0.31664  1.0000
  C   C149      1.0  0.56157  0.09417  0.31566  1.0000
  C   C150      1.0  0.57512  0.13231  0.32317  1.0000
  C   C151      1.0  0.61375  0.15589  0.32850  1.0000
  C   C152      1.0  0.63813  0.14167  0.32893  1.0000
  C   C153      1.0  0.62328  0.10323  0.32483  1.0000
  H   H64       1.0  0.62420  0.18359  0.33541  1.0000
  H   H65       1.0  0.64039  0.09239  0.32314  1.0000
  H   H66       1.0  0.53377  0.07656  0.31054  1.0000
  C   C154      1.0  0.50334  0.42553  0.30637  1.0000
  C   C155      1.0  0.54165  0.44942  0.30438  1.0000
  C   C156      1.0  0.56664  0.43641  0.31337  1.0000
  C   C157      1.0  0.55190  0.39785  0.32122  1.0000
  C   C158      1.0  0.51334  0.37313  0.32265  1.0000
  C   C159      1.0  0.48945  0.38760  0.31703  1.0000
  H   H67       1.0  0.56935  0.38771  0.32940  1.0000
  H   H68       1.0  0.46154  0.37027  0.31604  1.0000
  H   H69       1.0  0.55153  0.47711  0.29753  1.0000
  C   C160      1.0  0.93028  0.50663  0.32891  1.0000
  C   C161      1.0  0.91581  0.46831  0.32638  1.0000
  C   C162      1.0  0.87775  0.44343  0.33423  1.0000
  C   C163      1.0  0.85395  0.45814  0.34183  1.0000
  C   C164      1.0  0.86788  0.49668  0.34408  1.0000
  C   C165      1.0  0.90626  0.52057  0.33933  1.0000
  H   H70       1.0  0.82630  0.44065  0.34881  1.0000
  H   H71       1.0  0.91685  0.54849  0.33873  1.0000
  H   H72       1.0  0.93355  0.45834  0.31963  1.0000
  N   N25       1.0  0.03200  0.13679  0.38096  1.0000
  C   C166      1.0  0.03457  0.10570  0.38542  1.0000
  H   H73       1.0  0.05522  0.10616  0.42256  1.0000
  N   N26       1.0  0.87357  0.89518  0.37749  1.0000
  C   C167      1.0  0.90446  0.92898  0.38258  1.0000
  H   H74       1.0  0.90373  0.94897  0.41997  1.0000
  N   N27       1.0  0.11454  0.97805  0.37738  1.0000
  C   C168      1.0  0.08077  0.97523  0.38166  1.0000
  H   H75       1.0  0.06039  0.95393  0.41684  1.0000
  C   C169      1.0  0.07409  0.27886  0.36440  1.0000
  C   C170      1.0  0.13079  0.35325  0.35873  1.0000
  N   N28       1.0  0.10421  0.34019  0.42271  1.0000
  C   C171      1.0  0.07661  0.30461  0.43080  1.0000
  C   C172      1.0  0.05192  0.29566  0.50138  1.0000
  O   O16       1.0  0.05700  0.31895  0.55770  1.0000
  H   H76       1.0  0.04043  0.27025  0.52522  1.0000
  C   C173      1.0  0.73127  0.79625  0.34024  1.0000
  C   C174      1.0  0.65617  0.77691  0.34290  1.0000
  N   N29       1.0  0.68196  0.80367  0.39674  1.0000
  C   C175      1.0  0.71871  0.81460  0.39849  1.0000
  C   C176      1.0  0.74116  0.84055  0.46118  1.0000
  O   O17       1.0  0.72881  0.85595  0.50730  1.0000
  H   H77       1.0  0.75952  0.83600  0.49162  1.0000
  C   C177      1.0  0.21438  0.93591  0.33730  1.0000
  C   C178      1.0  0.23357  0.87997  0.34069  1.0000
  N   N30       1.0  0.20668  0.87903  0.39392  1.0000
  C   C179      1.0  0.19585  0.90492  0.39537  1.0000
  C   C180      1.0  0.16991  0.90135  0.45805  1.0000
  O   O18       1.0  0.15455  0.87385  0.50510  1.0000
  H   H78       1.0  0.17354  0.92411  0.48758  1.0000
  N   N31       1.0  0.30953  0.06832  0.39834  1.0000
  C   C181      1.0  0.34560  0.09426  0.40192  1.0000
  H   H79       1.0  0.36266  0.08992  0.44254  1.0000
  N   N32       1.0  0.81107  0.71505  0.38311  1.0000
  C   C182      1.0  0.80465  0.67991  0.38798  1.0000
  H   H80       1.0  0.81702  0.67311  0.43749  1.0000
  N   N33       1.0  0.94236  0.24171  0.39514  1.0000
  C   C183      1.0  0.91644  0.25181  0.39943  1.0000
  H   H81       1.0  0.92056  0.27276  0.44142  1.0000
  N   N34       1.0  0.28162  0.48783  0.39711  1.0000
  C   C184      1.0  0.31884  0.50705  0.39555  1.0000
  H   H82       1.0  0.33265  0.52844  0.43910  1.0000
  N   N35       1.0  0.52343  0.79571  0.41194  1.0000
  C   C185      1.0  0.50419  0.81371  0.41077  1.0000
  H   H83       1.0  0.48238  0.80563  0.45321  1.0000
  N   N36       1.0  0.21478  0.72847  0.41454  1.0000
  C   C186      1.0  0.19681  0.69120  0.41484  1.0000
  H   H84       1.0  0.20499  0.67776  0.45795  1.0000
  C   C187      1.0  0.46055  0.25704  0.33005  1.0000
  C   C188      1.0  0.49749  0.33437  0.32722  1.0000
  N   N37       1.0  0.46674  0.31398  0.37740  1.0000
  C   C189      1.0  0.44763  0.27656  0.38264  1.0000
  C   C190      1.0  0.41853  0.26003  0.44238  1.0000
  O   O19       1.0  0.40571  0.27798  0.47469  1.0000
  H   H85       1.0  0.41867  0.24139  0.48303  1.0000
  C   C191      1.0  0.80447  0.54916  0.34656  1.0000
  C   C192      1.0  0.84488  0.51237  0.34751  1.0000
  N   N38       1.0  0.85475  0.54300  0.39780  1.0000
  C   C193      1.0  0.83630  0.56199  0.40137  1.0000
  C   C194      1.0  0.84836  0.59110  0.46075  1.0000
  O   O20       1.0  0.87809  0.60319  0.49832  1.0000
  H   H86       1.0  0.82933  0.59273  0.49673  1.0000
  C   C195      1.0  0.75410  0.20440  0.33088  1.0000
  C   C196      1.0  0.67690  0.16431  0.33126  1.0000
  N   N39       1.0  0.69749  0.15413  0.38118  1.0000
  C   C197      1.0  0.73491  0.17235  0.38490  1.0000
  C   C198      1.0  0.75169  0.16003  0.44441  1.0000
  O   O21       1.0  0.73403  0.12977  0.47956  1.0000
  H   H87       1.0  0.77163  0.17883  0.48246  1.0000
  C   C199      1.0  0.14571  0.54275  0.36595  1.0000
  C   C200      1.0  0.15967  0.48360  0.36833  1.0000
  N   N40       1.0  0.17925  0.51451  0.41877  1.0000
  C   C201      1.0  0.17377  0.54393  0.42183  1.0000
  C   C202      1.0  0.19431  0.57219  0.48146  1.0000
  O   O22       1.0  0.22065  0.57319  0.51932  1.0000
  H   H88       1.0  0.18076  0.58119  0.51825  1.0000
  C   C203      1.0  0.46612  0.60414  0.34589  1.0000
  C   C204      1.0  0.52489  0.67722  0.35254  1.0000
  N   N41       1.0  0.49432  0.66492  0.40480  1.0000
  C   C205      1.0  0.46498  0.63000  0.40559  1.0000
  C   C206      1.0  0.43711  0.62122  0.46727  1.0000
  O   O23       1.0  0.43576  0.64579  0.50806  1.0000
  H   H89       1.0  0.42899  0.59824  0.50186  1.0000
  C   C207      1.0  0.40629  0.86284  0.35399  1.0000
  C   C208      1.0  0.33309  0.84827  0.35610  1.0000
  N   N42       1.0  0.34509  0.83026  0.41024  1.0000
  C   C209      1.0  0.38004  0.83598  0.41324  1.0000
  C   C210      1.0  0.38837  0.81715  0.47659  1.0000
  O   O24       1.0  0.36380  0.79150  0.51810  1.0000
  H   H90       1.0  0.41154  0.83154  0.51089  1.0000
  N   N43       1.0  0.51820  0.12418  0.37689  1.0000
  C   C211      1.0  0.48930  0.12994  0.38277  1.0000
  H   H91       1.0  0.46773  0.11356  0.42369  1.0000
  N   N44       1.0  0.61495  0.49457  0.36285  1.0000
  C   C212      1.0  0.64947  0.52376  0.36833  1.0000
  H   H92       1.0  0.65433  0.54582  0.40701  1.0000
  N   N45       1.0  0.88638  0.39446  0.38369  1.0000
  C   C213      1.0  0.88083  0.35984  0.38710  1.0000
  H   H93       1.0  0.89735  0.35440  0.42685  1.0000
  N   N46       1.0  0.02598  0.57423  0.38202  1.0000
  C   C214      1.0  0.98894  0.55834  0.38375  1.0000
  H   H94       1.0  0.97664  0.56441  0.43491  1.0000
  N   N47       1.0  0.43532  0.45325  0.35856  1.0000
  C   C215      1.0  0.45140  0.43226  0.36059  1.0000
  H   H95       1.0  0.44514  0.41374  0.41149  1.0000
  N   N48       1.0  0.55713  0.98383  0.37087  1.0000
  C   C216      1.0  0.57811  0.02088  0.37244  1.0000
  H   H96       1.0  0.59684  0.03329  0.42285  1.0000
