data_image0
_chemical_formula_structural       CNC2NC4NC18H14C2NC16H12C3NC2NC5NC4NC18H14CNC16H12C11H11CNCNC4NC16H13CNCHNHCNCHNHCNCHNHCNCHNHCNCHNHCNCHNHCNCHNHCNCHNHCNCHNHCNCHNHCNCHNHCNCHNHC7NC12H12C2NC3NC3NC18H14C12H12C3NC3NC3NC18H14C3NC3NC2NC5NC20H15C8NC14H13C4HC6HO2C4HC6HO2C4HC6HO2C4HC6HO2C4HC6HO2C4HC6HO2C4HC6HO2C4HC6HO2C4HC6HO2C4HC6HO2C4HC6HO2C4HC6HO2
_chemical_formula_sum              "C408 N48 H204 O24"
_cell_length_a       68.6267
_cell_length_b       68.6268
_cell_length_c       14.9955
_cell_angle_alpha    90.0014
_cell_angle_beta     89.9712
_cell_angle_gamma    120

_space_group_name_H-M_alt    "P 1"
_space_group_IT_number       1

loop_
  _space_group_symop_operation_xyz
  'x, y, z'

loop_
  _atom_site_type_symbol
  _atom_site_label
  _atom_site_symmetry_multiplicity
  _atom_site_fract_x
  _atom_site_fract_y
  _atom_site_fract_z
  _atom_site_occupancy
  C   C1        1.0  0.27427  0.51205  0.32845  1.0000
  N   N1        1.0  0.26674  0.47708  0.32729  1.0000
  C   C2        1.0  0.28954  0.48967  0.32814  1.0000
  C   C3        1.0  0.30605  0.48285  0.32813  1.0000
  N   N2        1.0  0.28046  0.44123  0.32760  1.0000
  C   C4        1.0  0.28195  0.42230  0.32834  1.0000
  C   C5        1.0  0.30494  0.42955  0.33077  1.0000
  C   C6        1.0  0.31661  0.45272  0.32878  1.0000
  C   C7        1.0  0.26415  0.39954  0.32749  1.0000
  N   N3        1.0  0.23077  0.40549  0.32753  1.0000
  C   C8        1.0  0.20798  0.39291  0.32854  1.0000
  C   C9        1.0  0.22322  0.37050  0.32671  1.0000
  C   C10       1.0  0.21556  0.46035  0.32803  1.0000
  C   C11       1.0  0.23334  0.48307  0.32893  1.0000
  C   C12       1.0  0.22743  0.50031  0.33331  1.0000
  C   C13       1.0  0.21725  0.50478  0.26035  1.0000
  C   C14       1.0  0.21206  0.52218  0.26467  1.0000
  C   C15       1.0  0.21763  0.53643  0.34036  1.0000
  C   C16       1.0  0.15739  0.36838  0.26128  1.0000
  C   C17       1.0  0.13434  0.35225  0.26566  1.0000
  C   C18       1.0  0.27021  0.38239  0.32747  1.0000
  C   C19       1.0  0.28529  0.35010  0.33221  1.0000
  C   C20       1.0  0.28923  0.36423  0.25710  1.0000
  C   C21       1.0  0.28141  0.37964  0.25375  1.0000
  C   C22       1.0  0.32928  0.50003  0.32850  1.0000
  C   C23       1.0  0.33890  0.51446  0.25454  1.0000
  C   C24       1.0  0.36117  0.53249  0.25784  1.0000
  C   C25       1.0  0.37521  0.53630  0.33313  1.0000
  H   H1        1.0  0.36663  0.54327  0.20482  1.0000
  H   H2        1.0  0.32937  0.51261  0.19925  1.0000
  H   H3        1.0  0.27318  0.52636  0.32827  1.0000
  H   H4        1.0  0.25864  0.46093  0.32639  1.0000
  H   H5        1.0  0.23889  0.42164  0.32783  1.0000
  H   H6        1.0  0.33375  0.46233  0.32902  1.0000
  H   H7        1.0  0.31240  0.41988  0.33305  1.0000
  H   H8        1.0  0.28496  0.38969  0.19867  1.0000
  H   H9        1.0  0.29862  0.36418  0.20435  1.0000
  H   H10       1.0  0.22433  0.35621  0.32566  1.0000
  H   H11       1.0  0.16618  0.36953  0.20443  1.0000
  H   H12       1.0  0.12738  0.34190  0.21188  1.0000
  H   H13       1.0  0.20422  0.52432  0.21080  1.0000
  H   H14       1.0  0.21347  0.49531  0.20348  1.0000
  C   C26       1.0  0.54420  0.76230  0.32866  1.0000
  C   C27       1.0  0.56658  0.79996  0.32853  1.0000
  N   N4        1.0  0.61502  0.83933  0.32814  1.0000
  C   C28       1.0  0.63394  0.85974  0.32888  1.0000
  C   C29       1.0  0.62670  0.87548  0.33136  1.0000
  C   C30       1.0  0.60352  0.86397  0.32946  1.0000
  C   C31       1.0  0.65670  0.86470  0.32796  1.0000
  C   C32       1.0  0.66334  0.81517  0.32887  1.0000
  C   C33       1.0  0.68574  0.85281  0.32699  1.0000
  C   C34       1.0  0.59591  0.75531  0.32851  1.0000
  C   C35       1.0  0.55149  0.71257  0.26077  1.0000
  C   C36       1.0  0.53409  0.68998  0.26509  1.0000
  C   C37       1.0  0.68789  0.78911  0.26166  1.0000
  C   C38       1.0  0.70402  0.78219  0.26606  1.0000
  C   C39       1.0  0.67386  0.88792  0.32791  1.0000
  C   C40       1.0  0.69204  0.92508  0.25743  1.0000
  C   C41       1.0  0.67662  0.90185  0.25414  1.0000
  C   C42       1.0  0.54180  0.82452  0.25503  1.0000
  C   C43       1.0  0.52379  0.82878  0.25825  1.0000
  H   H15       1.0  0.51303  0.82347  0.20517  1.0000
  H   H16       1.0  0.54370  0.81688  0.19969  1.0000
  H   H17       1.0  0.52989  0.74690  0.32867  1.0000
  H   H18       1.0  0.59392  0.87151  0.32963  1.0000
  H   H19       1.0  0.63636  0.89261  0.33360  1.0000
  H   H20       1.0  0.66656  0.89535  0.19912  1.0000
  H   H21       1.0  0.69207  0.93452  0.20472  1.0000
  H   H22       1.0  0.70004  0.86822  0.32624  1.0000
  H   H23       1.0  0.68676  0.79674  0.20480  1.0000
  H   H24       1.0  0.71437  0.78557  0.21226  1.0000
  H   H25       1.0  0.53195  0.67999  0.21122  1.0000
  H   H26       1.0  0.56097  0.71826  0.20390  1.0000
  C   C44       1.0  0.27385  0.76195  0.32975  1.0000
  C   C45       1.0  0.29395  0.78198  0.32793  1.0000
  C   C46       1.0  0.28928  0.79961  0.32796  1.0000
  N   N5        1.0  0.26649  0.78951  0.32691  1.0000
  C   C47       1.0  0.25629  0.76671  0.32771  1.0000
  C   C48       1.0  0.23296  0.75020  0.32778  1.0000
  N   N6        1.0  0.21692  0.77579  0.32721  1.0000
  C   C49       1.0  0.19651  0.77430  0.32792  1.0000
  C   C50       1.0  0.18077  0.75132  0.33041  1.0000
  C   C51       1.0  0.19227  0.73965  0.32853  1.0000
  C   C52       1.0  0.19155  0.79211  0.32702  1.0000
  C   C53       1.0  0.20810  0.81540  0.32679  1.0000
  N   N7        1.0  0.23088  0.82548  0.32699  1.0000
  C   C54       1.0  0.24109  0.84827  0.32801  1.0000
  C   C55       1.0  0.22356  0.85308  0.32883  1.0000
  C   C56       1.0  0.20345  0.83303  0.32615  1.0000
  C   C57       1.0  0.26442  0.86470  0.32894  1.0000
  N   N8        1.0  0.28051  0.83915  0.32735  1.0000
  C   C58       1.0  0.30095  0.84069  0.32781  1.0000
  C   C59       1.0  0.30589  0.82290  0.32866  1.0000
  C   C60       1.0  0.32904  0.82882  0.33315  1.0000
  C   C61       1.0  0.34372  0.83903  0.26027  1.0000
  C   C62       1.0  0.36631  0.84422  0.26471  1.0000
  C   C63       1.0  0.37495  0.83862  0.34045  1.0000
  C   C64       1.0  0.27061  0.88792  0.33368  1.0000
  C   C65       1.0  0.26717  0.89888  0.26084  1.0000
  C   C66       1.0  0.27409  0.92193  0.26528  1.0000
  C   C67       1.0  0.28556  0.93519  0.34088  1.0000
  C   C68       1.0  0.16834  0.78605  0.32701  1.0000
  C   C69       1.0  0.12097  0.77097  0.33178  1.0000
  C   C70       1.0  0.13117  0.76705  0.25664  1.0000
  C   C71       1.0  0.15441  0.77485  0.25330  1.0000
  C   C72       1.0  0.22691  0.72698  0.32816  1.0000
  C   C73       1.0  0.23172  0.71736  0.25418  1.0000
  C   C74       1.0  0.22751  0.69510  0.25753  1.0000
  C   C75       1.0  0.21726  0.68105  0.33280  1.0000
  H   H27       1.0  0.23283  0.68965  0.20446  1.0000
  H   H28       1.0  0.23942  0.72691  0.19890  1.0000
  H   H29       1.0  0.30935  0.78307  0.32796  1.0000
  H   H30       1.0  0.25846  0.79762  0.32616  1.0000
  H   H31       1.0  0.23892  0.81737  0.32716  1.0000
  H   H32       1.0  0.18473  0.72250  0.32871  1.0000
  H   H33       1.0  0.16364  0.74385  0.33265  1.0000
  H   H34       1.0  0.16091  0.77130  0.19824  1.0000
  H   H35       1.0  0.12174  0.75764  0.20396  1.0000
  H   H36       1.0  0.18804  0.83193  0.32527  1.0000
  H   H37       1.0  0.25956  0.89012  0.20395  1.0000
  H   H38       1.0  0.27073  0.92891  0.21149  1.0000
  H   H39       1.0  0.37633  0.85209  0.21091  1.0000
  H   H40       1.0  0.33806  0.84282  0.20338  1.0000
  C   C76       1.0  0.78539  0.54790  0.32874  1.0000
  N   N9        1.0  0.79447  0.59634  0.32837  1.0000
  C   C77       1.0  0.79299  0.61526  0.32907  1.0000
  C   C78       1.0  0.77000  0.60802  0.33150  1.0000
  C   C79       1.0  0.75833  0.58484  0.32961  1.0000
  C   C80       1.0  0.81079  0.63802  0.32818  1.0000
  C   C81       1.0  0.86696  0.64465  0.32899  1.0000
  C   C82       1.0  0.85172  0.66706  0.32729  1.0000
  C   C83       1.0  0.85938  0.57722  0.32863  1.0000
  C   C84       1.0  0.85770  0.53279  0.26091  1.0000
  C   C85       1.0  0.86289  0.51539  0.26525  1.0000
  C   C86       1.0  0.91754  0.66918  0.26153  1.0000
  C   C87       1.0  0.94060  0.68530  0.26581  1.0000
  C   C88       1.0  0.80473  0.65518  0.32812  1.0000
  C   C89       1.0  0.78573  0.67334  0.25769  1.0000
  C   C90       1.0  0.79358  0.65794  0.25432  1.0000
  C   C91       1.0  0.73606  0.52312  0.25522  1.0000
  C   C92       1.0  0.71379  0.50509  0.25851  1.0000
  H   H41       1.0  0.70835  0.49431  0.20548  1.0000
  H   H42       1.0  0.74560  0.52498  0.19992  1.0000
  H   H43       1.0  0.80176  0.51120  0.32885  1.0000
  H   H44       1.0  0.74119  0.57524  0.32960  1.0000
  H   H45       1.0  0.76254  0.61769  0.33363  1.0000
  H   H46       1.0  0.79000  0.64787  0.19934  1.0000
  H   H47       1.0  0.77634  0.67338  0.20496  1.0000
  H   H48       1.0  0.85061  0.68136  0.32645  1.0000
  H   H49       1.0  0.90876  0.66802  0.20470  1.0000
  H   H50       1.0  0.94756  0.69564  0.21198  1.0000
  H   H51       1.0  0.87076  0.51326  0.21140  1.0000
  H   H52       1.0  0.86150  0.54227  0.20406  1.0000
  C   C93       1.0  0.44100  0.17782  0.32935  1.0000
  C   C94       1.0  0.44824  0.16208  0.33179  1.0000
  C   C95       1.0  0.47141  0.17358  0.32987  1.0000
  C   C96       1.0  0.52347  0.32500  0.26135  1.0000
  C   C97       1.0  0.54087  0.34759  0.26567  1.0000
  C   C98       1.0  0.38709  0.24846  0.26192  1.0000
  C   C99       1.0  0.37097  0.25539  0.26619  1.0000
  C   C100      1.0  0.38294  0.11251  0.25766  1.0000
  C   C101      1.0  0.39837  0.13574  0.25447  1.0000
  C   C102      1.0  0.53315  0.21303  0.25560  1.0000
  C   C103      1.0  0.55117  0.20879  0.25884  1.0000
  H   H53       1.0  0.56195  0.21412  0.20579  1.0000
  H   H54       1.0  0.53129  0.22072  0.20030  1.0000
  H   H55       1.0  0.54506  0.29065  0.32931  1.0000
  H   H56       1.0  0.48102  0.16604  0.33012  1.0000
  H   H57       1.0  0.40843  0.14227  0.19945  1.0000
  H   H58       1.0  0.38291  0.10309  0.20485  1.0000
  H   H59       1.0  0.37490  0.16934  0.32651  1.0000
  H   H60       1.0  0.38826  0.24083  0.20510  1.0000
  H   H61       1.0  0.36063  0.25200  0.21236  1.0000
  H   H62       1.0  0.54302  0.35758  0.21179  1.0000
  H   H63       1.0  0.51401  0.31931  0.20449  1.0000
  C   C104      1.0  0.78099  0.25557  0.32859  1.0000
  N   N10       1.0  0.80844  0.24805  0.32753  1.0000
  C   C105      1.0  0.81865  0.27085  0.32833  1.0000
  N   N11       1.0  0.85802  0.26178  0.32791  1.0000
  C   C106      1.0  0.87843  0.26327  0.32864  1.0000
  C   C107      1.0  0.89417  0.28625  0.33109  1.0000
  C   C108      1.0  0.88266  0.29792  0.32917  1.0000
  C   C109      1.0  0.88339  0.24547  0.32775  1.0000
  N   N12       1.0  0.84406  0.21208  0.32767  1.0000
  C   C110      1.0  0.83386  0.18929  0.32869  1.0000
  C   C111      1.0  0.87150  0.20454  0.32681  1.0000
  C   C112      1.0  0.77400  0.19687  0.32845  1.0000
  C   C113      1.0  0.76905  0.21465  0.32933  1.0000
  C   C114      1.0  0.73124  0.19854  0.26092  1.0000
  C   C115      1.0  0.70866  0.19336  0.26536  1.0000
  C   C116      1.0  0.69999  0.19895  0.34109  1.0000
  C   C117      1.0  0.80781  0.13870  0.26148  1.0000
  C   C118      1.0  0.80088  0.11565  0.26587  1.0000
  C   C119      1.0  0.90661  0.25153  0.32771  1.0000
  C   C120      1.0  0.95397  0.26661  0.33237  1.0000
  C   C121      1.0  0.94378  0.27052  0.25724  1.0000
  C   C122      1.0  0.92054  0.26271  0.25393  1.0000
  C   C123      1.0  0.84802  0.31059  0.32879  1.0000
  C   C124      1.0  0.84321  0.32020  0.25486  1.0000
  C   C125      1.0  0.84747  0.34248  0.25812  1.0000
  H   H64       1.0  0.84216  0.34794  0.20507  1.0000
  H   H65       1.0  0.83557  0.31068  0.19951  1.0000
  H   H66       1.0  0.76559  0.25448  0.32865  1.0000
  H   H67       1.0  0.81648  0.23994  0.32681  1.0000
  H   H68       1.0  0.89020  0.31506  0.32932  1.0000
  H   H69       1.0  0.91130  0.29372  0.33332  1.0000
  H   H70       1.0  0.91405  0.26627  0.19891  1.0000
  H   H71       1.0  0.95322  0.27993  0.20452  1.0000
  H   H72       1.0  0.88691  0.20565  0.32606  1.0000
  H   H73       1.0  0.81544  0.14748  0.20462  1.0000
  H   H74       1.0  0.80426  0.10868  0.21207  1.0000
  H   H75       1.0  0.69865  0.18550  0.21154  1.0000
  H   H76       1.0  0.73692  0.19476  0.20402  1.0000
  C   C126      1.0  0.21463  0.56715  0.26343  1.0000
  N   N13       1.0  0.21315  0.58610  0.26679  1.0000
  C   C127      1.0  0.21196  0.64587  0.25975  1.0000
  H   H77       1.0  0.21728  0.56237  0.20228  1.0000
  N   N14       1.0  0.21104  0.62572  0.26489  1.0000
  H   H78       1.0  0.21144  0.65160  0.19752  1.0000
  C   C128      1.0  0.48909  0.64759  0.26381  1.0000
  N   N15       1.0  0.47016  0.62715  0.26715  1.0000
  C   C129      1.0  0.41040  0.56617  0.26009  1.0000
  H   H79       1.0  0.49391  0.65500  0.20264  1.0000
  N   N16       1.0  0.43054  0.58540  0.26525  1.0000
  H   H80       1.0  0.40468  0.55993  0.19787  1.0000
  C   C130      1.0  0.40872  0.84166  0.26368  1.0000
  N   N17       1.0  0.42914  0.84314  0.26714  1.0000
  C   C131      1.0  0.49011  0.84434  0.26037  1.0000
  H   H81       1.0  0.40133  0.83904  0.20249  1.0000
  N   N18       1.0  0.47088  0.84526  0.26543  1.0000
  H   H82       1.0  0.49639  0.84488  0.19817  1.0000
  C   C132      1.0  0.86030  0.47040  0.26403  1.0000
  N   N19       1.0  0.86180  0.45147  0.26739  1.0000
  C   C133      1.0  0.86302  0.39171  0.26036  1.0000
  H   H83       1.0  0.85771  0.47521  0.20285  1.0000
  N   N20       1.0  0.86393  0.41185  0.26550  1.0000
  H   H84       1.0  0.86355  0.38599  0.19813  1.0000
  C   C134      1.0  0.58585  0.39000  0.26443  1.0000
  N   N21       1.0  0.60479  0.41042  0.26779  1.0000
  C   C135      1.0  0.66456  0.47139  0.26074  1.0000
  H   H85       1.0  0.58107  0.38258  0.20328  1.0000
  N   N22       1.0  0.64441  0.45217  0.26589  1.0000
  H   H86       1.0  0.67029  0.47765  0.19851  1.0000
  C   C136      1.0  0.66626  0.19596  0.26430  1.0000
  N   N23       1.0  0.64582  0.19445  0.26774  1.0000
  C   C137      1.0  0.58484  0.19323  0.26095  1.0000
  H   H87       1.0  0.67365  0.19855  0.20310  1.0000
  N   N24       1.0  0.60407  0.19232  0.26602  1.0000
  H   H88       1.0  0.57859  0.19270  0.19875  1.0000
  C   C138      1.0  0.08392  0.32925  0.26406  1.0000
  N   N25       1.0  0.06119  0.31661  0.26730  1.0000
  C   C139      1.0  0.99154  0.28075  0.25967  1.0000
  H   H89       1.0  0.09100  0.33507  0.20295  1.0000
  N   N26       1.0  0.01426  0.29132  0.26504  1.0000
  H   H90       1.0  0.98466  0.27683  0.19739  1.0000
  C   C140      1.0  0.72699  0.75473  0.26448  1.0000
  N   N27       1.0  0.73964  0.74466  0.26771  1.0000
  C   C141      1.0  0.77552  0.71089  0.26007  1.0000
  H   H91       1.0  0.72122  0.75603  0.20335  1.0000
  N   N28       1.0  0.76495  0.72304  0.26545  1.0000
  H   H92       1.0  0.77944  0.70792  0.19780  1.0000
  C   C142      1.0  0.30152  0.97236  0.26383  1.0000
  N   N29       1.0  0.31160  0.99509  0.26715  1.0000
  C   C143      1.0  0.34539  0.06474  0.25980  1.0000
  H   H93       1.0  0.30028  0.96530  0.20270  1.0000
  N   N30       1.0  0.33323  0.04202  0.26507  1.0000
  H   H94       1.0  0.34838  0.07165  0.19755  1.0000
  C   C144      1.0  0.99103  0.70828  0.26400  1.0000
  N   N31       1.0  0.01375  0.72093  0.26713  1.0000
  C   C145      1.0  0.08340  0.75681  0.25921  1.0000
  H   H95       1.0  0.98394  0.70248  0.20290  1.0000
  N   N32       1.0  0.06068  0.74624  0.26467  1.0000
  H   H96       1.0  0.09028  0.76071  0.19691  1.0000
  C   C146      1.0  0.34796  0.28281  0.26437  1.0000
  N   N33       1.0  0.33533  0.29290  0.26751  1.0000
  C   C147      1.0  0.29946  0.32668  0.25962  1.0000
  H   H97       1.0  0.35380  0.28155  0.20330  1.0000
  N   N34       1.0  0.31003  0.31453  0.26507  1.0000
  H   H98       1.0  0.29556  0.32966  0.19732  1.0000
  C   C148      1.0  0.77342  0.06522  0.26427  1.0000
  N   N35       1.0  0.76335  0.04250  0.26749  1.0000
  C   C149      1.0  0.72958  0.97284  0.25985  1.0000
  H   H99       1.0  0.77473  0.07230  0.20314  1.0000
  N   N36       1.0  0.74173  0.99557  0.26522  1.0000
  H   H100      1.0  0.72661  0.96596  0.19757  1.0000
  C   C150      1.0  0.29430  0.51199  0.33019  1.0000
  C   C151      1.0  0.25664  0.48976  0.32834  1.0000
  C   C152      1.0  0.30095  0.46006  0.32831  1.0000
  C   C153      1.0  0.24085  0.39280  0.32731  1.0000
  C   C154      1.0  0.20318  0.37057  0.32936  1.0000
  C   C155      1.0  0.19155  0.39981  0.32945  1.0000
  C   C156      1.0  0.19664  0.42260  0.32818  1.0000
  N   N37       1.0  0.21710  0.44145  0.32772  1.0000
  C   C157      1.0  0.19259  0.45313  0.32905  1.0000
  C   C158      1.0  0.18097  0.42995  0.32733  1.0000
  C   C159      1.0  0.22787  0.53166  0.41302  1.0000
  C   C160      1.0  0.23221  0.51371  0.41052  1.0000
  C   C161      1.0  0.16833  0.38278  0.33413  1.0000
  C   C162      1.0  0.12106  0.35047  0.34122  1.0000
  C   C163      1.0  0.13237  0.36512  0.41375  1.0000
  C   C164      1.0  0.15559  0.38058  0.41128  1.0000
  C   C165      1.0  0.26601  0.36842  0.40253  1.0000
  C   C166      1.0  0.27291  0.35226  0.40373  1.0000
  C   C167      1.0  0.34296  0.50346  0.40382  1.0000
  C   C168      1.0  0.36556  0.52086  0.40498  1.0000
  H   H101      1.0  0.37480  0.52209  0.46027  1.0000
  H   H102      1.0  0.33656  0.49324  0.45846  1.0000
  H   H103      1.0  0.30972  0.52625  0.33247  1.0000
  H   H104      1.0  0.25786  0.36991  0.45704  1.0000
  H   H105      1.0  0.26886  0.34222  0.45885  1.0000
  H   H106      1.0  0.18773  0.35634  0.33080  1.0000
  H   H107      1.0  0.18514  0.46282  0.33028  1.0000
  H   H108      1.0  0.16382  0.42033  0.32678  1.0000
  H   H109      1.0  0.16295  0.39098  0.46482  1.0000
  H   H110      1.0  0.12378  0.36541  0.46890  1.0000
  H   H111      1.0  0.23981  0.51108  0.46428  1.0000
  H   H112      1.0  0.23313  0.54170  0.46831  1.0000
  C   C169      1.0  0.54426  0.78240  0.33055  1.0000
  C   C170      1.0  0.56649  0.76697  0.32869  1.0000
  N   N38       1.0  0.57917  0.78976  0.32769  1.0000
  C   C171      1.0  0.57340  0.82329  0.32866  1.0000
  C   C172      1.0  0.59618  0.84098  0.32891  1.0000
  C   C173      1.0  0.66345  0.84816  0.32767  1.0000
  N   N39       1.0  0.65076  0.82537  0.32785  1.0000
  C   C174      1.0  0.68568  0.83270  0.32970  1.0000
  C   C175      1.0  0.65645  0.79184  0.32979  1.0000
  C   C176      1.0  0.63365  0.77413  0.32860  1.0000
  N   N40       1.0  0.61480  0.77574  0.32815  1.0000
  C   C177      1.0  0.60313  0.73955  0.32949  1.0000
  C   C178      1.0  0.62631  0.75112  0.32783  1.0000
  C   C179      1.0  0.57318  0.75037  0.32936  1.0000
  C   C180      1.0  0.55594  0.72721  0.33373  1.0000
  C   C181      1.0  0.51982  0.68130  0.34077  1.0000
  C   C182      1.0  0.52455  0.69631  0.41339  1.0000
  C   C183      1.0  0.54254  0.71859  0.41098  1.0000
  C   C184      1.0  0.67347  0.78565  0.33451  1.0000
  C   C185      1.0  0.70579  0.77070  0.34164  1.0000
  C   C186      1.0  0.69113  0.76738  0.41419  1.0000
  C   C187      1.0  0.67566  0.77512  0.41165  1.0000
  C   C188      1.0  0.68782  0.89770  0.40295  1.0000
  C   C189      1.0  0.70397  0.92075  0.40411  1.0000
  C   C190      1.0  0.70614  0.93528  0.33255  1.0000
  C   C191      1.0  0.55622  0.82934  0.32901  1.0000
  C   C192      1.0  0.55275  0.83957  0.40432  1.0000
  C   C193      1.0  0.51995  0.83900  0.33354  1.0000
  C   C194      1.0  0.53535  0.84478  0.40544  1.0000
  H   H113      1.0  0.53409  0.85277  0.46073  1.0000
  H   H114      1.0  0.56295  0.84339  0.45899  1.0000
  H   H115      1.0  0.52999  0.78355  0.33289  1.0000
  H   H116      1.0  0.59532  0.79780  0.32700  1.0000
  H   H117      1.0  0.63461  0.81734  0.32809  1.0000
  H   H118      1.0  0.68631  0.88806  0.45747  1.0000
  H   H119      1.0  0.71400  0.92675  0.45921  1.0000
  H   H120      1.0  0.69991  0.83149  0.33129  1.0000
  H   H121      1.0  0.59344  0.72242  0.33073  1.0000
  H   H122      1.0  0.63593  0.74359  0.32714  1.0000
  H   H123      1.0  0.66526  0.77208  0.46521  1.0000
  H   H124      1.0  0.69082  0.75848  0.46931  1.0000
  H   H125      1.0  0.54513  0.72883  0.46466  1.0000
  H   H126      1.0  0.51451  0.69153  0.46868  1.0000
  C   C195      1.0  0.21527  0.75530  0.32799  1.0000
  C   C196      1.0  0.28213  0.85961  0.32781  1.0000
  C   C197      1.0  0.31670  0.86366  0.32881  1.0000
  C   C198      1.0  0.30514  0.87528  0.32712  1.0000
  C   C199      1.0  0.35991  0.82833  0.41299  1.0000
  C   C200      1.0  0.33761  0.82401  0.41042  1.0000
  C   C201      1.0  0.28888  0.92384  0.41338  1.0000
  C   C202      1.0  0.28109  0.90062  0.41090  1.0000
  C   C203      1.0  0.15855  0.79023  0.40207  1.0000
  C   C204      1.0  0.13550  0.78333  0.40330  1.0000
  C   C205      1.0  0.21665  0.71327  0.40348  1.0000
  C   C206      1.0  0.21145  0.69067  0.40465  1.0000
  H   H127      1.0  0.20342  0.68142  0.45992  1.0000
  H   H128      1.0  0.21281  0.71967  0.45812  1.0000
  H   H129      1.0  0.27269  0.74653  0.33209  1.0000
  H   H130      1.0  0.16819  0.79837  0.45658  1.0000
  H   H131      1.0  0.12950  0.78736  0.45843  1.0000
  H   H132      1.0  0.22477  0.86852  0.33037  1.0000
  H   H133      1.0  0.33384  0.87111  0.33014  1.0000
  H   H134      1.0  0.31267  0.89243  0.32645  1.0000
  H   H135      1.0  0.28415  0.89326  0.46439  1.0000
  H   H136      1.0  0.29775  0.93242  0.46855  1.0000
  H   H137      1.0  0.32735  0.81637  0.46409  1.0000
  H   H138      1.0  0.36466  0.82307  0.46834  1.0000
  C   C207      1.0  0.78063  0.52557  0.33079  1.0000
  C   C208      1.0  0.80067  0.52551  0.32894  1.0000
  C   C209      1.0  0.81830  0.54780  0.32889  1.0000
  N   N41       1.0  0.80819  0.56049  0.32790  1.0000
  C   C210      1.0  0.76889  0.55472  0.32882  1.0000
  C   C211      1.0  0.77399  0.57750  0.32907  1.0000
  C   C212      1.0  0.83409  0.64477  0.32793  1.0000
  N   N42       1.0  0.84417  0.63207  0.32808  1.0000
  C   C213      1.0  0.87176  0.66699  0.32988  1.0000
  C   C214      1.0  0.88339  0.63776  0.32984  1.0000
  C   C215      1.0  0.87830  0.61496  0.32865  1.0000
  N   N43       1.0  0.85784  0.59611  0.32823  1.0000
  C   C216      1.0  0.88235  0.58443  0.32958  1.0000
  C   C217      1.0  0.89397  0.60761  0.32784  1.0000
  C   C218      1.0  0.84159  0.55449  0.32947  1.0000
  C   C219      1.0  0.84750  0.53725  0.33387  1.0000
  C   C220      1.0  0.85730  0.50113  0.34094  1.0000
  C   C221      1.0  0.84702  0.50587  0.41357  1.0000
  C   C222      1.0  0.84270  0.52385  0.41111  1.0000
  C   C223      1.0  0.90660  0.65478  0.33445  1.0000
  C   C224      1.0  0.95388  0.68709  0.34132  1.0000
  C   C225      1.0  0.94256  0.67244  0.41391  1.0000
  C   C226      1.0  0.91934  0.65699  0.41155  1.0000
  C   C227      1.0  0.80890  0.66914  0.40318  1.0000
  C   C228      1.0  0.80200  0.68530  0.40432  1.0000
  C   C229      1.0  0.78965  0.68746  0.33277  1.0000
  C   C230      1.0  0.74566  0.53754  0.32918  1.0000
  C   C231      1.0  0.73195  0.53409  0.40448  1.0000
  C   C232      1.0  0.69973  0.50127  0.33379  1.0000
  C   C233      1.0  0.70935  0.51669  0.40565  1.0000
  H   H139      1.0  0.70009  0.51545  0.46091  1.0000
  H   H140      1.0  0.73833  0.54431  0.45913  1.0000
  H   H141      1.0  0.76521  0.51131  0.33311  1.0000
  H   H142      1.0  0.81630  0.57663  0.32705  1.0000
  H   H143      1.0  0.83605  0.61592  0.32822  1.0000
  H   H144      1.0  0.81703  0.66764  0.45771  1.0000
  H   H145      1.0  0.80602  0.69532  0.45945  1.0000
  H   H146      1.0  0.88721  0.68123  0.33139  1.0000
  H   H147      1.0  0.88979  0.57474  0.33089  1.0000
  H   H148      1.0  0.91111  0.61723  0.32727  1.0000
  H   H149      1.0  0.91198  0.64660  0.46513  1.0000
  H   H150      1.0  0.95115  0.67216  0.46904  1.0000
  H   H151      1.0  0.83507  0.52646  0.46483  1.0000
  H   H152      1.0  0.84176  0.49585  0.46890  1.0000
  C   C234      1.0  0.53068  0.25515  0.33129  1.0000
  C   C235      1.0  0.53074  0.27525  0.32952  1.0000
  C   C236      1.0  0.50845  0.27059  0.32941  1.0000
  N   N44       1.0  0.49577  0.24780  0.32839  1.0000
  C   C237      1.0  0.50836  0.23759  0.32925  1.0000
  C   C238      1.0  0.50154  0.21427  0.32925  1.0000
  C   C239      1.0  0.47876  0.19658  0.32941  1.0000
  N   N45       1.0  0.45992  0.19823  0.32867  1.0000
  C   C240      1.0  0.41823  0.17286  0.32843  1.0000
  C   C241      1.0  0.41149  0.18941  0.32823  1.0000
  N   N46       1.0  0.42418  0.21219  0.32847  1.0000
  C   C242      1.0  0.41160  0.22240  0.32941  1.0000
  C   C243      1.0  0.38926  0.20486  0.33020  1.0000
  C   C244      1.0  0.38920  0.18475  0.32758  1.0000
  C   C245      1.0  0.41850  0.24572  0.33028  1.0000
  C   C246      1.0  0.44129  0.26343  0.32906  1.0000
  N   N47       1.0  0.46014  0.26182  0.32867  1.0000
  C   C247      1.0  0.47904  0.28225  0.32901  1.0000
  C   C248      1.0  0.47182  0.29801  0.32998  1.0000
  C   C249      1.0  0.44864  0.28645  0.32820  1.0000
  C   C250      1.0  0.50176  0.28719  0.32996  1.0000
  C   C251      1.0  0.51900  0.31035  0.33433  1.0000
  C   C252      1.0  0.55512  0.35626  0.34136  1.0000
  C   C253      1.0  0.55035  0.34126  0.41404  1.0000
  C   C254      1.0  0.53239  0.31896  0.41154  1.0000
  C   C255      1.0  0.40147  0.25192  0.33485  1.0000
  C   C256      1.0  0.36916  0.26688  0.34169  1.0000
  C   C257      1.0  0.38379  0.27021  0.41429  1.0000
  C   C258      1.0  0.39924  0.26244  0.41194  1.0000
  C   C259      1.0  0.40108  0.14964  0.32827  1.0000
  C   C260      1.0  0.38708  0.13983  0.40326  1.0000
  C   C261      1.0  0.37092  0.11678  0.40429  1.0000
  C   C262      1.0  0.36879  0.10228  0.33268  1.0000
  C   C263      1.0  0.51872  0.20822  0.32959  1.0000
  C   C264      1.0  0.52216  0.19796  0.40488  1.0000
  C   C265      1.0  0.55499  0.19855  0.33410  1.0000
  C   C266      1.0  0.53956  0.19276  0.40600  1.0000
  H   H153      1.0  0.54080  0.18475  0.46128  1.0000
  H   H154      1.0  0.51194  0.19413  0.45955  1.0000
  H   H155      1.0  0.54495  0.25400  0.33356  1.0000
  H   H156      1.0  0.47962  0.23976  0.32751  1.0000
  H   H157      1.0  0.44034  0.22022  0.32877  1.0000
  H   H158      1.0  0.43857  0.14495  0.33404  1.0000
  H   H159      1.0  0.38855  0.14945  0.45781  1.0000
  H   H160      1.0  0.36086  0.11076  0.45935  1.0000
  H   H161      1.0  0.37503  0.20607  0.33159  1.0000
  H   H162      1.0  0.48150  0.31514  0.33121  1.0000
  H   H163      1.0  0.43902  0.29398  0.32760  1.0000
  H   H164      1.0  0.40962  0.26548  0.46553  1.0000
  H   H165      1.0  0.38406  0.27909  0.46942  1.0000
  H   H166      1.0  0.52976  0.30872  0.46531  1.0000
  H   H167      1.0  0.56038  0.34602  0.46933  1.0000
  C   C267      1.0  0.80108  0.27561  0.33040  1.0000
  C   C268      1.0  0.78565  0.23794  0.32861  1.0000
  C   C269      1.0  0.84198  0.28736  0.32841  1.0000
  C   C270      1.0  0.85966  0.28226  0.32865  1.0000
  C   C271      1.0  0.86684  0.22217  0.32748  1.0000
  C   C272      1.0  0.85139  0.18450  0.32953  1.0000
  C   C273      1.0  0.81053  0.17287  0.32963  1.0000
  C   C274      1.0  0.79282  0.17795  0.32848  1.0000
  N   N48       1.0  0.79443  0.19841  0.32803  1.0000
  C   C275      1.0  0.75824  0.17390  0.32945  1.0000
  C   C276      1.0  0.76980  0.16228  0.32775  1.0000
  C   C277      1.0  0.74590  0.20874  0.33382  1.0000
  C   C278      1.0  0.71502  0.20922  0.41364  1.0000
  C   C279      1.0  0.73730  0.21352  0.41111  1.0000
  C   C280      1.0  0.80434  0.14965  0.33434  1.0000
  C   C281      1.0  0.78939  0.10237  0.34145  1.0000
  C   C282      1.0  0.78606  0.11370  0.41401  1.0000
  C   C283      1.0  0.79380  0.13691  0.41148  1.0000
  C   C284      1.0  0.91638  0.24734  0.40276  1.0000
  C   C285      1.0  0.93944  0.25425  0.40392  1.0000
  C   C286      1.0  0.85826  0.32428  0.40411  1.0000
  C   C287      1.0  0.85769  0.35652  0.33342  1.0000
  C   C288      1.0  0.86347  0.34688  0.40528  1.0000
  H   H168      1.0  0.87147  0.35612  0.46056  1.0000
  H   H169      1.0  0.86209  0.31788  0.45875  1.0000
  H   H170      1.0  0.80224  0.29102  0.33275  1.0000
  H   H171      1.0  0.83603  0.22020  0.32790  1.0000
  H   H172      1.0  0.90673  0.23920  0.45728  1.0000
  H   H173      1.0  0.94543  0.25021  0.45903  1.0000
  H   H174      1.0  0.85018  0.16905  0.33113  1.0000
  H   H175      1.0  0.74111  0.16645  0.33073  1.0000
  H   H176      1.0  0.76228  0.14513  0.32705  1.0000
  H   H177      1.0  0.79076  0.14427  0.46505  1.0000
  H   H178      1.0  0.77716  0.10511  0.46913  1.0000
  H   H179      1.0  0.74755  0.22117  0.46475  1.0000
  H   H180      1.0  0.71025  0.21449  0.46896  1.0000
  C   C289      1.0  0.21411  0.55547  0.34221  1.0000
  C   C290      1.0  0.21113  0.59527  0.34394  1.0000
  C   C291      1.0  0.21042  0.58464  0.42599  1.0000
  C   C292      1.0  0.21123  0.56446  0.42322  1.0000
  H   H181      1.0  0.21014  0.55646  0.48202  1.0000
  C   C293      1.0  0.21101  0.61578  0.34310  1.0000
  C   C294      1.0  0.21392  0.65854  0.33738  1.0000
  C   C295      1.0  0.21341  0.64806  0.41979  1.0000
  C   C296      1.0  0.21148  0.62658  0.42436  1.0000
  C   C297      1.0  0.21064  0.61588  0.50612  1.0000
  C   C298      1.0  0.20965  0.59486  0.50689  1.0000
  H   H182      1.0  0.21537  0.65650  0.47816  1.0000
  O   O1        1.0  0.21076  0.62554  0.58509  1.0000
  O   O2        1.0  0.20916  0.58532  0.58660  1.0000
  C   C299      1.0  0.50076  0.65875  0.34259  1.0000
  C   C300      1.0  0.46097  0.61596  0.34430  1.0000
  C   C301      1.0  0.47157  0.62587  0.42636  1.0000
  C   C302      1.0  0.49175  0.64687  0.42360  1.0000
  H   H183      1.0  0.49975  0.65378  0.48240  1.0000
  C   C303      1.0  0.44047  0.59533  0.34345  1.0000
  C   C304      1.0  0.39770  0.55548  0.33773  1.0000
  C   C305      1.0  0.40817  0.56543  0.42014  1.0000
  C   C306      1.0  0.42965  0.58500  0.42471  1.0000
  C   C307      1.0  0.44033  0.59486  0.50648  1.0000
  C   C308      1.0  0.46134  0.61489  0.50725  1.0000
  H   H184      1.0  0.39971  0.55896  0.47851  1.0000
  O   O3        1.0  0.43065  0.58532  0.58544  1.0000
  O   O4        1.0  0.47086  0.62394  0.58696  1.0000
  C   C309      1.0  0.39752  0.84215  0.34240  1.0000
  C   C310      1.0  0.44030  0.84513  0.34434  1.0000
  C   C311      1.0  0.43034  0.84581  0.42635  1.0000
  C   C312      1.0  0.40934  0.84499  0.42348  1.0000
  H   H185      1.0  0.40240  0.84606  0.48225  1.0000
  C   C313      1.0  0.46092  0.84525  0.34359  1.0000
  C   C314      1.0  0.50078  0.84233  0.33806  1.0000
  C   C315      1.0  0.49077  0.84282  0.42042  1.0000
  C   C316      1.0  0.47121  0.84474  0.42491  1.0000
  C   C317      1.0  0.46131  0.84555  0.50662  1.0000
  C   C318      1.0  0.44128  0.84654  0.50730  1.0000
  H   H186      1.0  0.49722  0.84083  0.47881  1.0000
  O   O5        1.0  0.47080  0.84540  0.58563  1.0000
  O   O6        1.0  0.43218  0.84700  0.58696  1.0000
  C   C319      1.0  0.86082  0.48209  0.34280  1.0000
  C   C320      1.0  0.86380  0.44229  0.34453  1.0000
  C   C321      1.0  0.86449  0.45290  0.42659  1.0000
  C   C322      1.0  0.86366  0.47308  0.42381  1.0000
  H   H187      1.0  0.86475  0.48108  0.48261  1.0000
  C   C323      1.0  0.86393  0.42179  0.34370  1.0000
  C   C324      1.0  0.86103  0.37903  0.33800  1.0000
  C   C325      1.0  0.86153  0.38950  0.42041  1.0000
  C   C326      1.0  0.86343  0.41098  0.42497  1.0000
  C   C327      1.0  0.86425  0.42166  0.50673  1.0000
  C   C328      1.0  0.86523  0.44268  0.50749  1.0000
  H   H188      1.0  0.85953  0.38104  0.47878  1.0000
  O   O7        1.0  0.86410  0.41200  0.58570  1.0000
  O   O8        1.0  0.86569  0.45220  0.58719  1.0000
  C   C329      1.0  0.57416  0.37882  0.34321  1.0000
  C   C330      1.0  0.61396  0.42161  0.34493  1.0000
  C   C331      1.0  0.60332  0.41168  0.42699  1.0000
  C   C332      1.0  0.58314  0.39069  0.42422  1.0000
  H   H189      1.0  0.57513  0.38377  0.48301  1.0000
  C   C333      1.0  0.63446  0.44223  0.34408  1.0000
  C   C334      1.0  0.67723  0.48209  0.33838  1.0000
  C   C335      1.0  0.66674  0.47211  0.42079  1.0000
  C   C336      1.0  0.64526  0.45255  0.42536  1.0000
  C   C337      1.0  0.63455  0.44268  0.50711  1.0000
  C   C338      1.0  0.61353  0.42266  0.50789  1.0000
  H   H190      1.0  0.67518  0.47859  0.47916  1.0000
  O   O9        1.0  0.64420  0.45221  0.58608  1.0000
  O   O10       1.0  0.60399  0.41360  0.58759  1.0000
  C   C339      1.0  0.67744  0.19545  0.34302  1.0000
  C   C340      1.0  0.63464  0.19245  0.34494  1.0000
  C   C341      1.0  0.64458  0.19176  0.42695  1.0000
  C   C342      1.0  0.66558  0.19259  0.42409  1.0000
  H   H191      1.0  0.67250  0.19150  0.48286  1.0000
  C   C343      1.0  0.61402  0.19232  0.34418  1.0000
  C   C344      1.0  0.57416  0.19523  0.33863  1.0000
  C   C345      1.0  0.58413  0.19471  0.42100  1.0000
  C   C346      1.0  0.60370  0.19281  0.42549  1.0000
  C   C347      1.0  0.61358  0.19199  0.50721  1.0000
  C   C348      1.0  0.63361  0.19101  0.50789  1.0000
  H   H192      1.0  0.57767  0.19671  0.47939  1.0000
  O   O11       1.0  0.60406  0.19212  0.58622  1.0000
  O   O12       1.0  0.64269  0.19055  0.58756  1.0000
  C   C349      1.0  0.09706  0.33538  0.34294  1.0000
  C   C350      1.0  0.04940  0.30900  0.34440  1.0000
  C   C351      1.0  0.06120  0.31432  0.42655  1.0000
  C   C352      1.0  0.08498  0.32690  0.42392  1.0000
  H   H193      1.0  0.09356  0.33027  0.48277  1.0000
  C   C353      1.0  0.02566  0.29704  0.34337  1.0000
  C   C354      1.0  0.97800  0.27572  0.33719  1.0000
  C   C355      1.0  0.98973  0.28119  0.41974  1.0000
  C   C356      1.0  0.01342  0.29137  0.42454  1.0000
  C   C357      1.0  0.02523  0.29660  0.50641  1.0000
  C   C358      1.0  0.04892  0.30758  0.50737  1.0000
  H   H194      1.0  0.98106  0.27859  0.47799  1.0000
  O   O13       1.0  0.01409  0.29121  0.58528  1.0000
  O   O14       1.0  0.05961  0.31256  0.58716  1.0000
  C   C359      1.0  0.72085  0.76175  0.34335  1.0000
  C   C360      1.0  0.74724  0.74049  0.34480  1.0000
  C   C361      1.0  0.74190  0.74697  0.42696  1.0000
  C   C362      1.0  0.72933  0.75817  0.42433  1.0000
  H   H195      1.0  0.72595  0.76339  0.48317  1.0000
  C   C363      1.0  0.75921  0.72872  0.34378  1.0000
  C   C364      1.0  0.78053  0.70238  0.33760  1.0000
  C   C365      1.0  0.77506  0.70865  0.42015  1.0000
  C   C366      1.0  0.76486  0.72214  0.42495  1.0000
  C   C367      1.0  0.75962  0.72872  0.50681  1.0000
  C   C368      1.0  0.74863  0.74143  0.50778  1.0000
  H   H196      1.0  0.77763  0.70257  0.47841  1.0000
  O   O15       1.0  0.76500  0.72299  0.58569  1.0000
  O   O16       1.0  0.74364  0.74715  0.58756  1.0000
  C   C369      1.0  0.29450  0.95919  0.34267  1.0000
  C   C370      1.0  0.31575  0.00684  0.34430  1.0000
  C   C371      1.0  0.30923  0.99500  0.42640  1.0000
  C   C372      1.0  0.29803  0.97123  0.42368  1.0000
  H   H197      1.0  0.29279  0.96262  0.48250  1.0000
  C   C373      1.0  0.32751  0.03058  0.34336  1.0000
  C   C374      1.0  0.35386  0.07824  0.33739  1.0000
  C   C375      1.0  0.34756  0.06648  0.41988  1.0000
  C   C376      1.0  0.33406  0.04279  0.42458  1.0000
  C   C377      1.0  0.32744  0.03094  0.50640  1.0000
  C   C378      1.0  0.31473  0.00725  0.50727  1.0000
  H   H198      1.0  0.35361  0.07512  0.47818  1.0000
  O   O17       1.0  0.33314  0.04204  0.58532  1.0000
  O   O18       1.0  0.30898  0.99652  0.58701  1.0000
  C   C379      1.0  0.97788  0.70217  0.34292  1.0000
  C   C380      1.0  0.02554  0.72855  0.34417  1.0000
  C   C381      1.0  0.01373  0.72324  0.42637  1.0000
  C   C382      1.0  0.98996  0.71066  0.42384  1.0000
  H   H199      1.0  0.98137  0.70731  0.48273  1.0000
  C   C383      1.0  0.04927  0.74052  0.34305  1.0000
  C   C384      1.0  0.09693  0.76184  0.33669  1.0000
  C   C385      1.0  0.08521  0.75640  0.41929  1.0000
  C   C386      1.0  0.06152  0.74620  0.42417  1.0000
  C   C387      1.0  0.04971  0.74098  0.50609  1.0000
  C   C388      1.0  0.02601  0.72999  0.50714  1.0000
  H   H200      1.0  0.09387  0.75898  0.47751  1.0000
  O   O19       1.0  0.06084  0.74639  0.58492  1.0000
  O   O20       1.0  0.01532  0.72503  0.58697  1.0000
  C   C389      1.0  0.35407  0.27580  0.34330  1.0000
  C   C390      1.0  0.32769  0.29707  0.34456  1.0000
  C   C391      1.0  0.33298  0.29057  0.42676  1.0000
  C   C392      1.0  0.34556  0.27937  0.42422  1.0000
  H   H201      1.0  0.34891  0.27415  0.48311  1.0000
  C   C393      1.0  0.31572  0.30884  0.34344  1.0000
  C   C394      1.0  0.29440  0.33518  0.33710  1.0000
  C   C395      1.0  0.29984  0.32891  0.41969  1.0000
  C   C396      1.0  0.31003  0.31541  0.42457  1.0000
  C   C397      1.0  0.31524  0.30882  0.50648  1.0000
  C   C398      1.0  0.32621  0.29610  0.50753  1.0000
  H   H202      1.0  0.29723  0.33497  0.47792  1.0000
  O   O21       1.0  0.30981  0.31454  0.58531  1.0000
  O   O22       1.0  0.33116  0.29038  0.58736  1.0000
  C   C399      1.0  0.78044  0.07837  0.34315  1.0000
  C   C400      1.0  0.75917  0.03071  0.34458  1.0000
  C   C401      1.0  0.76565  0.04252  0.42674  1.0000
  C   C402      1.0  0.77685  0.06629  0.42412  1.0000
  H   H203      1.0  0.78207  0.07488  0.48297  1.0000
  C   C403      1.0  0.74741  0.00698  0.34356  1.0000
  C   C404      1.0  0.72106  0.95931  0.33737  1.0000
  C   C405      1.0  0.72733  0.97104  0.41992  1.0000
  C   C406      1.0  0.74082  0.99473  0.42472  1.0000
  C   C407      1.0  0.74739  0.00655  0.50659  1.0000
  C   C408      1.0  0.76011  0.03024  0.50756  1.0000
  H   H204      1.0  0.72124  0.96238  0.47818  1.0000
  O   O23       1.0  0.74165  0.99542  0.58547  1.0000
  O   O24       1.0  0.76581  0.04093  0.58735  1.0000
