data_image0
_chemical_formula_structural       CNCOCH3CNCOCH3CNCOCH3NC2OCH3NC2OCH3NC2OCH3CNCOCH3CNCOCH3CNCOCH3CNCOCH3CNCOCH3CNCOCH3NC2OCH3NC2OCH3NC2OCH3NC2OCH3NC2OCH3NC2OCH3CNCOCH3CNCOCH3CNCOCH3CNCOCH3CNCOCH3CNCOCH3C6H3C6H3C6H3C6H3C6H3C6H3C6H3C6H3C6H3C6H3C6H3C6H3C6H3C6H3C6H3C6H3NC2OCH3NC2OCH3NC2OCH3CNCOCH3CNCOCH3CNCOCH3NC2OCH3NC2OCH3NC2OCH3NC2OCH3NC2OCH3NC2OCH3CNCOCH3CNCOCH3CNCOCH3CNCOCH3CNCOCH3CNCOCH3NC2OCH3NC2OCH3NC2OCH3NC2OCH3NC2OCH3NC2OCH3
_chemical_formula_sum              "C240 N48 O48 H192"
_cell_length_a       41.9992
_cell_length_b       41.9992
_cell_length_c       14.8516
_cell_angle_alpha    90
_cell_angle_beta     90
_cell_angle_gamma    120

_space_group_name_H-M_alt    "P 1"
_space_group_IT_number       1

loop_
  _space_group_symop_operation_xyz
  'x, y, z'

loop_
  _atom_site_type_symbol
  _atom_site_label
  _atom_site_symmetry_multiplicity
  _atom_site_fract_x
  _atom_site_fract_y
  _atom_site_fract_z
  _atom_site_occupancy
  C   C1        1.0  0.00541  0.07328  0.34303  1.0000
  N   N1        1.0  0.98147  0.11321  0.30346  1.0000
  C   C2        1.0  0.97892  0.07943  0.29864  1.0000
  O   O1        1.0  0.95087  0.05305  0.24838  1.0000
  C   C3        1.0  0.96023  0.05387  0.15495  1.0000
  H   H1        1.0  0.93646  0.03198  0.12036  1.0000
  H   H2        1.0  0.98330  0.04900  0.14627  1.0000
  H   H3        1.0  0.96684  0.08000  0.12353  1.0000
  C   C4        1.0  0.93921  0.93462  0.34302  1.0000
  N   N2        1.0  0.89928  0.87075  0.30346  1.0000
  C   C5        1.0  0.93306  0.90198  0.29864  1.0000
  O   O2        1.0  0.95944  0.90031  0.24838  1.0000
  C   C6        1.0  0.95862  0.90885  0.15495  1.0000
  H   H4        1.0  0.98051  0.90697  0.12036  1.0000
  H   H5        1.0  0.96349  0.93679  0.14626  1.0000
  H   H6        1.0  0.93249  0.88932  0.12353  1.0000
  C   C7        1.0  0.07787  0.00708  0.34302  1.0000
  N   N3        1.0  0.14174  0.03102  0.30347  1.0000
  C   C8        1.0  0.11052  0.03357  0.29864  1.0000
  O   O3        1.0  0.11218  0.06162  0.24840  1.0000
  C   C9        1.0  0.10364  0.05226  0.15495  1.0000
  H   H7        1.0  0.10553  0.07604  0.12037  1.0000
  H   H8        1.0  0.07571  0.02920  0.14627  1.0000
  H   H9        1.0  0.12317  0.04566  0.12354  1.0000
  N   N4        1.0  0.10455  0.34506  0.28188  1.0000
  C   C10       1.0  0.07675  0.30983  0.27130  1.0000
  C   C11       1.0  0.07392  0.28220  0.33136  1.0000
  O   O4        1.0  0.05108  0.30319  0.20633  1.0000
  C   C12       1.0  0.05976  0.29301  0.12131  1.0000
  H   H10       1.0  0.03808  0.28833  0.07371  1.0000
  H   H11       1.0  0.06084  0.26761  0.12677  1.0000
  H   H12       1.0  0.08583  0.31490  0.09458  1.0000
  N   N5        1.0  0.66742  0.76198  0.28194  1.0000
  C   C13       1.0  0.70266  0.76941  0.27136  1.0000
  C   C14       1.0  0.73028  0.79421  0.33143  1.0000
  O   O5        1.0  0.70930  0.75038  0.20637  1.0000
  C   C15       1.0  0.71946  0.76924  0.12135  1.0000
  H   H13       1.0  0.72415  0.75225  0.07374  1.0000
  H   H14       1.0  0.74486  0.79572  0.12681  1.0000
  H   H15       1.0  0.69756  0.77341  0.09464  1.0000
  N   N6        1.0  0.25051  0.90793  0.28189  1.0000
  C   C16       1.0  0.24308  0.93573  0.27128  1.0000
  C   C17       1.0  0.21830  0.93858  0.33138  1.0000
  O   O6        1.0  0.26211  0.96139  0.20628  1.0000
  C   C18       1.0  0.24324  0.95271  0.12129  1.0000
  H   H16       1.0  0.26022  0.97437  0.07365  1.0000
  H   H17       1.0  0.21675  0.95162  0.12676  1.0000
  H   H18       1.0  0.23905  0.92663  0.09457  1.0000
  C   C19       1.0  0.35811  0.13002  0.34624  1.0000
  N   N7        1.0  0.29526  0.09924  0.29532  1.0000
  C   C20       1.0  0.33045  0.12807  0.28769  1.0000
  O   O7        1.0  0.33829  0.15299  0.21996  1.0000
  C   C21       1.0  0.34607  0.14163  0.13538  1.0000
  H   H19       1.0  0.35215  0.16314  0.08599  1.0000
  H   H20       1.0  0.32244  0.11619  0.11124  1.0000
  H   H21       1.0  0.37001  0.13797  0.14025  1.0000
  C   C22       1.0  0.78190  0.65438  0.34630  1.0000
  N   N8        1.0  0.81396  0.71723  0.29539  1.0000
  C   C23       1.0  0.80760  0.68204  0.28772  1.0000
  O   O8        1.0  0.82465  0.67419  0.21995  1.0000
  C   C24       1.0  0.80548  0.66641  0.13540  1.0000
  H   H22       1.0  0.82089  0.66033  0.08597  1.0000
  H   H23       1.0  0.80368  0.69005  0.11130  1.0000
  H   H24       1.0  0.77787  0.64247  0.14031  1.0000
  C   C25       1.0  0.88248  0.23059  0.34627  1.0000
  N   N9        1.0  0.91326  0.19853  0.29539  1.0000
  C   C26       1.0  0.88443  0.20488  0.28772  1.0000
  O   O9        1.0  0.85952  0.18782  0.21996  1.0000
  C   C27       1.0  0.87090  0.20698  0.13540  1.0000
  H   H25       1.0  0.84941  0.19156  0.08598  1.0000
  H   H26       1.0  0.89634  0.20878  0.11129  1.0000
  H   H27       1.0  0.87457  0.23459  0.14029  1.0000
  C   C28       1.0  0.26179  0.45987  0.36378  1.0000
  N   N10       1.0  0.31760  0.46766  0.30281  1.0000
  C   C29       1.0  0.28027  0.44845  0.30386  1.0000
  O   O10       1.0  0.26238  0.41948  0.24594  1.0000
  C   C30       1.0  0.25815  0.43038  0.15700  1.0000
  H   H28       1.0  0.24345  0.40566  0.11605  1.0000
  H   H29       1.0  0.28479  0.44821  0.12541  1.0000
  H   H30       1.0  0.24206  0.44433  0.15800  1.0000
  C   C31       1.0  0.55266  0.80445  0.36389  1.0000
  N   N11       1.0  0.54482  0.85243  0.30275  1.0000
  C   C32       1.0  0.56403  0.83431  0.30385  1.0000
  O   O11       1.0  0.59298  0.84536  0.24589  1.0000
  C   C33       1.0  0.58206  0.83020  0.15699  1.0000
  H   H31       1.0  0.60677  0.84021  0.11601  1.0000
  H   H32       1.0  0.56423  0.83900  0.12539  1.0000
  H   H33       1.0  0.56811  0.80017  0.15806  1.0000
  C   C34       1.0  0.20803  0.75070  0.36389  1.0000
  N   N12       1.0  0.16002  0.69487  0.30289  1.0000
  C   C35       1.0  0.17814  0.73220  0.30392  1.0000
  O   O12       1.0  0.16708  0.75009  0.24595  1.0000
  C   C36       1.0  0.18222  0.75430  0.15703  1.0000
  H   H34       1.0  0.17220  0.76899  0.11603  1.0000
  H   H35       1.0  0.17339  0.72765  0.12547  1.0000
  H   H36       1.0  0.21224  0.77037  0.15804  1.0000
  N   N13       1.0  0.49240  0.28118  0.27693  1.0000
  C   C37       1.0  0.51184  0.31849  0.27701  1.0000
  C   C38       1.0  0.50107  0.33735  0.33740  1.0000
  O   O13       1.0  0.54110  0.33610  0.21983  1.0000
  C   C39       1.0  0.53074  0.34154  0.13135  1.0000
  H   H37       1.0  0.55560  0.35580  0.09072  1.0000
  H   H38       1.0  0.51777  0.35853  0.13349  1.0000
  H   H39       1.0  0.51223  0.31534  0.09868  1.0000
  N   N14       1.0  0.79873  0.52007  0.27699  1.0000
  C   C40       1.0  0.81662  0.50064  0.27702  1.0000
  C   C41       1.0  0.84625  0.51141  0.33736  1.0000
  O   O14       1.0  0.80495  0.47137  0.21984  1.0000
  C   C42       1.0  0.82072  0.48173  0.13135  1.0000
  H   H40       1.0  0.81012  0.45686  0.09071  1.0000
  H   H41       1.0  0.85068  0.49470  0.13344  1.0000
  H   H42       1.0  0.81303  0.50024  0.09870  1.0000
  N   N15       1.0  0.73131  0.21374  0.27701  1.0000
  C   C43       1.0  0.69400  0.19585  0.27707  1.0000
  C   C44       1.0  0.67514  0.16622  0.33743  1.0000
  O   O15       1.0  0.67640  0.20751  0.21989  1.0000
  C   C45       1.0  0.67097  0.19173  0.13140  1.0000
  H   H43       1.0  0.65671  0.20233  0.09076  1.0000
  H   H44       1.0  0.65398  0.16177  0.13351  1.0000
  H   H45       1.0  0.69717  0.19942  0.09874  1.0000
  N   N16       1.0  0.14222  0.48815  0.28643  1.0000
  C   C46       1.0  0.13416  0.51538  0.27384  1.0000
  C   C47       1.0  0.14740  0.54479  0.33662  1.0000
  O   O16       1.0  0.11268  0.51263  0.20168  1.0000
  C   C48       1.0  0.13371  0.53044  0.12241  1.0000
  H   H46       1.0  0.11458  0.52662  0.06831  1.0000
  H   H47       1.0  0.15028  0.51836  0.10113  1.0000
  H   H48       1.0  0.15155  0.55997  0.13311  1.0000
  N   N17       1.0  0.52436  0.65656  0.28652  1.0000
  C   C49       1.0  0.49714  0.62125  0.27395  1.0000
  C   C50       1.0  0.46773  0.60509  0.33673  1.0000
  O   O17       1.0  0.49992  0.60252  0.20185  1.0000
  C   C51       1.0  0.48214  0.60573  0.12250  1.0000
  H   H49       1.0  0.48598  0.59040  0.06846  1.0000
  H   H50       1.0  0.49425  0.63438  0.10119  1.0000
  H   H51       1.0  0.45262  0.59407  0.13312  1.0000
  N   N18       1.0  0.35592  0.87029  0.28640  1.0000
  C   C52       1.0  0.39124  0.87838  0.27384  1.0000
  C   C53       1.0  0.40739  0.86514  0.33663  1.0000
  O   O18       1.0  0.40997  0.89989  0.20173  1.0000
  C   C54       1.0  0.40675  0.87889  0.12239  1.0000
  H   H52       1.0  0.42208  0.89804  0.06834  1.0000
  H   H53       1.0  0.37811  0.86234  0.10108  1.0000
  H   H54       1.0  0.41842  0.86103  0.13303  1.0000
  C   C55       1.0  0.48899  0.16043  0.33254  1.0000
  N   N19       1.0  0.54590  0.16653  0.28106  1.0000
  C   C56       1.0  0.51868  0.17478  0.27041  1.0000
  O   O19       1.0  0.52120  0.19670  0.19943  1.0000
  C   C57       1.0  0.50468  0.17630  0.11848  1.0000
  H   H55       1.0  0.50804  0.19579  0.06573  1.0000
  H   H56       1.0  0.47527  0.15730  0.12746  1.0000
  H   H57       1.0  0.51809  0.16108  0.09630  1.0000
  C   C58       1.0  0.68141  0.52351  0.33251  1.0000
  N   N20       1.0  0.63062  0.46661  0.28097  1.0000
  C   C59       1.0  0.66608  0.49383  0.27035  1.0000
  O   O20       1.0  0.68548  0.49133  0.19936  1.0000
  C   C60       1.0  0.68161  0.50787  0.11843  1.0000
  H   H58       1.0  0.69774  0.50452  0.06567  1.0000
  H   H59       1.0  0.69202  0.53728  0.12745  1.0000
  H   H60       1.0  0.65298  0.49446  0.09625  1.0000
  C   C61       1.0  0.85207  0.33106  0.33250  1.0000
  N   N21       1.0  0.84596  0.38186  0.28095  1.0000
  C   C62       1.0  0.83772  0.34639  0.27033  1.0000
  O   O21       1.0  0.81581  0.32698  0.19936  1.0000
  C   C63       1.0  0.83621  0.33085  0.11842  1.0000
  H   H61       1.0  0.81672  0.31471  0.06567  1.0000
  H   H62       1.0  0.85522  0.32045  0.12743  1.0000
  H   H63       1.0  0.85142  0.35948  0.09622  1.0000
  C   C64       1.0  0.96930  0.52820  0.32454  1.0000
  N   N22       1.0  0.02695  0.54278  0.26274  1.0000
  C   C65       1.0  0.98994  0.52356  0.25600  1.0000
  O   O22       1.0  0.97443  0.49822  0.18844  1.0000
  C   C66       1.0  0.96706  0.51300  0.10900  1.0000
  H   H64       1.0  0.95499  0.49124  0.05868  1.0000
  H   H65       1.0  0.99230  0.53568  0.08095  1.0000
  H   H66       1.0  0.94747  0.52234  0.12270  1.0000
  C   C67       1.0  0.48428  0.44361  0.32472  1.0000
  N   N23       1.0  0.46965  0.48662  0.26277  1.0000
  C   C68       1.0  0.48889  0.46885  0.25609  1.0000
  O   O23       1.0  0.51423  0.47867  0.18852  1.0000
  C   C69       1.0  0.49944  0.45648  0.10913  1.0000
  H   H67       1.0  0.52120  0.46617  0.05879  1.0000
  H   H68       1.0  0.47675  0.45903  0.08107  1.0000
  H   H69       1.0  0.49012  0.42756  0.12289  1.0000
  C   C70       1.0  0.56887  0.04318  0.32466  1.0000
  N   N24       1.0  0.52584  0.98554  0.26273  1.0000
  C   C71       1.0  0.54360  0.02255  0.25607  1.0000
  O   O24       1.0  0.53376  0.03808  0.18857  1.0000
  C   C72       1.0  0.55590  0.04547  0.10911  1.0000
  H   H70       1.0  0.54620  0.05755  0.05883  1.0000
  H   H71       1.0  0.55334  0.02023  0.08101  1.0000
  H   H72       1.0  0.58484  0.06507  0.12281  1.0000
  C   C73       1.0  0.00615  0.03886  0.34320  1.0000
  C   C74       1.0  0.04010  0.03890  0.34398  1.0000
  C   C75       1.0  0.04271  0.00634  0.34320  1.0000
  C   C76       1.0  0.00880  0.97239  0.34398  1.0000
  C   C77       1.0  0.97363  0.96978  0.34320  1.0000
  C   C78       1.0  0.97359  0.00369  0.34396  1.0000
  H   H73       1.0  0.00985  0.94862  0.34606  1.0000
  H   H74       1.0  0.94877  0.00264  0.34608  1.0000
  H   H75       1.0  0.06388  0.06372  0.34607  1.0000
  C   C79       1.0  0.04132  0.24664  0.33794  1.0000
  C   C80       1.0  0.00708  0.24518  0.34456  1.0000
  C   C81       1.0  0.97324  0.21194  0.35141  1.0000
  C   C82       1.0  0.97430  0.17862  0.34873  1.0000
  C   C83       1.0  0.00800  0.17797  0.34624  1.0000
  C   C84       1.0  0.04115  0.21274  0.34144  1.0000
  H   H76       1.0  0.94997  0.15433  0.35346  1.0000
  H   H77       1.0  0.06579  0.21356  0.33555  1.0000
  H   H78       1.0  0.00679  0.26944  0.34442  1.0000
  C   C85       1.0  0.76585  0.79718  0.33789  1.0000
  C   C86       1.0  0.76731  0.76440  0.34457  1.0000
  C   C87       1.0  0.80055  0.76380  0.35143  1.0000
  C   C88       1.0  0.83387  0.79818  0.34872  1.0000
  C   C89       1.0  0.83452  0.83253  0.34624  1.0000
  C   C90       1.0  0.79974  0.83090  0.34144  1.0000
  H   H79       1.0  0.85816  0.79814  0.35345  1.0000
  H   H80       1.0  0.79893  0.85473  0.33557  1.0000
  H   H81       1.0  0.74305  0.73985  0.34445  1.0000
  C   C91       1.0  0.21532  0.97117  0.33789  1.0000
  C   C92       1.0  0.24810  0.00541  0.34453  1.0000
  C   C93       1.0  0.24869  0.03925  0.35140  1.0000
  C   C94       1.0  0.21431  0.03818  0.34873  1.0000
  C   C95       1.0  0.17996  0.00448  0.34624  1.0000
  C   C96       1.0  0.18160  0.97134  0.34143  1.0000
  H   H82       1.0  0.21437  0.06252  0.35340  1.0000
  H   H83       1.0  0.15777  0.94669  0.33560  1.0000
  H   H84       1.0  0.27265  0.00570  0.34436  1.0000
  C   C97       1.0  0.17270  0.45958  0.35801  1.0000
  C   C98       1.0  0.21031  0.47075  0.36374  1.0000
  C   C99       1.0  0.22300  0.44538  0.36344  1.0000
  C   C100      1.0  0.19658  0.40738  0.35826  1.0000
  C   C101      1.0  0.15836  0.39472  0.35113  1.0000
  C   C102      1.0  0.14714  0.42155  0.34881  1.0000
  H   H85       1.0  0.20538  0.38865  0.35815  1.0000
  H   H86       1.0  0.11975  0.41323  0.34408  1.0000
  H   H87       1.0  0.22909  0.49836  0.36380  1.0000
  C   C103      1.0  0.55289  0.71562  0.35800  1.0000
  C   C104      1.0  0.54173  0.74206  0.36371  1.0000
  C   C105      1.0  0.56712  0.78014  0.36347  1.0000
  C   C106      1.0  0.60512  0.79170  0.35828  1.0000
  C   C107      1.0  0.61776  0.76613  0.35115  1.0000
  C   C108      1.0  0.59093  0.72809  0.34882  1.0000
  H   H88       1.0  0.62385  0.81923  0.35822  1.0000
  H   H89       1.0  0.59924  0.70900  0.34412  1.0000
  H   H90       1.0  0.51412  0.73325  0.36382  1.0000
  C   C109      1.0  0.29686  0.83976  0.35784  1.0000
  C   C110      1.0  0.27042  0.80215  0.36361  1.0000
  C   C111      1.0  0.23235  0.78948  0.36336  1.0000
  C   C112      1.0  0.22079  0.81591  0.35826  1.0000
  C   C113      1.0  0.24636  0.85413  0.35113  1.0000
  C   C114      1.0  0.28440  0.86533  0.34875  1.0000
  H   H91       1.0  0.19326  0.80712  0.35824  1.0000
  H   H92       1.0  0.30348  0.89272  0.34405  1.0000
  H   H93       1.0  0.27924  0.78337  0.36371  1.0000
  C   C115      1.0  0.46138  0.17067  0.33274  1.0000
  C   C116      1.0  0.47269  0.20834  0.32867  1.0000
  C   C117      1.0  0.44748  0.22125  0.32950  1.0000
  C   C118      1.0  0.40942  0.19494  0.33422  1.0000
  C   C119      1.0  0.39660  0.15665  0.34016  1.0000
  C   C120      1.0  0.42329  0.14522  0.34142  1.0000
  H   H94       1.0  0.39079  0.20386  0.33460  1.0000
  H   H95       1.0  0.41482  0.11776  0.34503  1.0000
  H   H96       1.0  0.50032  0.22703  0.32885  1.0000
  C   C121      1.0  0.71927  0.55112  0.33274  1.0000
  C   C122      1.0  0.74562  0.53980  0.32874  1.0000
  C   C123      1.0  0.78374  0.56500  0.32955  1.0000
  C   C124      1.0  0.79549  0.60306  0.33427  1.0000
  C   C125      1.0  0.77002  0.61589  0.34022  1.0000
  C   C126      1.0  0.73191  0.58921  0.34154  1.0000
  H   H97       1.0  0.82305  0.62169  0.33464  1.0000
  H   H98       1.0  0.71293  0.59768  0.34500  1.0000
  H   H99       1.0  0.73666  0.51217  0.32885  1.0000
  C   C127      1.0  0.84184  0.29321  0.33274  1.0000
  C   C128      1.0  0.80416  0.26685  0.32875  1.0000
  C   C129      1.0  0.79125  0.22873  0.32955  1.0000
  C   C130      1.0  0.81756  0.21699  0.33424  1.0000
  C   C131      1.0  0.85585  0.24246  0.34021  1.0000
  C   C132      1.0  0.86728  0.28057  0.34152  1.0000
  H   H100      1.0  0.80864  0.18943  0.33465  1.0000
  H   H101      1.0  0.89474  0.29956  0.34499  1.0000
  H   H102      1.0  0.78548  0.27581  0.32887  1.0000
  C   C133      1.0  0.08334  0.58212  0.33450  1.0000
  C   C134      1.0  0.09747  0.55804  0.33246  1.0000
  C   C135      1.0  0.13555  0.57114  0.33767  1.0000
  C   C136      1.0  0.15957  0.60953  0.34811  1.0000
  C   C137      1.0  0.14599  0.63451  0.34883  1.0000
  C   C138      1.0  0.10762  0.62010  0.34236  1.0000
  H   H103      1.0  0.18730  0.61942  0.35084  1.0000
  H   H104      1.0  0.09697  0.63738  0.34348  1.0000
  H   H105      1.0  0.07946  0.53025  0.32990  1.0000
  C   C139      1.0  0.43034  0.50369  0.33448  1.0000
  C   C140      1.0  0.45444  0.54190  0.33250  1.0000
  C   C141      1.0  0.44136  0.56689  0.33770  1.0000
  C   C142      1.0  0.40297  0.55254  0.34804  1.0000
  C   C143      1.0  0.37796  0.51398  0.34875  1.0000
  C   C144      1.0  0.39236  0.49001  0.34231  1.0000
  H   H106      1.0  0.39309  0.57039  0.35082  1.0000
  H   H107      1.0  0.37507  0.46209  0.34342  1.0000
  H   H108      1.0  0.48222  0.55166  0.33001  1.0000
  C   C145      1.0  0.50880  0.92915  0.33438  1.0000
  C   C146      1.0  0.47058  0.91503  0.33239  1.0000
  C   C147      1.0  0.44559  0.87696  0.33758  1.0000
  C   C148      1.0  0.45994  0.85292  0.34797  1.0000
  C   C149      1.0  0.49851  0.86648  0.34870  1.0000
  C   C150      1.0  0.52248  0.90485  0.34221  1.0000
  H   H109      1.0  0.44209  0.82520  0.35078  1.0000
  H   H110      1.0  0.55040  0.91548  0.34333  1.0000
  H   H111      1.0  0.46082  0.93305  0.32990  1.0000
  C   C151      1.0  0.58336  0.08117  0.33312  1.0000
  C   C152      1.0  0.55941  0.09539  0.33918  1.0000
  C   C153      1.0  0.57295  0.13349  0.34575  1.0000
  C   C154      1.0  0.61155  0.15754  0.34271  1.0000
  C   C155      1.0  0.63624  0.14362  0.33979  1.0000
  C   C156      1.0  0.62152  0.10516  0.33650  1.0000
  H   H112      1.0  0.62173  0.18531  0.34628  1.0000
  H   H113      1.0  0.63867  0.09444  0.33125  1.0000
  H   H114      1.0  0.53157  0.07757  0.33787  1.0000
  C   C157      1.0  0.50778  0.42912  0.33315  1.0000
  C   C158      1.0  0.54595  0.45308  0.33915  1.0000
  C   C159      1.0  0.57053  0.43955  0.34563  1.0000
  C   C160      1.0  0.55598  0.40094  0.34266  1.0000
  C   C161      1.0  0.51738  0.37625  0.33979  1.0000
  C   C162      1.0  0.49362  0.39096  0.33652  1.0000
  H   H115      1.0  0.57357  0.39077  0.34621  1.0000
  H   H116      1.0  0.46575  0.37381  0.33130  1.0000
  H   H117      1.0  0.55598  0.48092  0.33784  1.0000
  C   C163      1.0  0.93131  0.50470  0.33297  1.0000
  C   C164      1.0  0.91710  0.46653  0.33902  1.0000
  C   C165      1.0  0.87899  0.44195  0.34554  1.0000
  C   C166      1.0  0.85494  0.45651  0.34261  1.0000
  C   C167      1.0  0.86885  0.49511  0.33971  1.0000
  C   C168      1.0  0.90731  0.51885  0.33628  1.0000
  H   H118      1.0  0.82717  0.43891  0.34622  1.0000
  H   H119      1.0  0.91803  0.54673  0.33116  1.0000
  H   H120      1.0  0.93491  0.45650  0.33773  1.0000
  N   N25       1.0  0.03210  0.10347  0.38687  1.0000
  C   C169      1.0  0.03468  0.13723  0.39175  1.0000
  C   C170      1.0  0.00819  0.14334  0.34736  1.0000
  O   O25       1.0  0.06294  0.16381  0.44115  1.0000
  C   C171      1.0  0.05393  0.16336  0.53473  1.0000
  H   H121      1.0  0.07785  0.18536  0.56862  1.0000
  H   H122      1.0  0.04742  0.13734  0.56665  1.0000
  H   H123      1.0  0.03092  0.16830  0.54366  1.0000
  N   N26       1.0  0.90903  0.93113  0.38687  1.0000
  C   C172      1.0  0.87526  0.89994  0.39175  1.0000
  C   C173      1.0  0.86915  0.86734  0.34736  1.0000
  O   O26       1.0  0.84869  0.90162  0.44116  1.0000
  C   C174      1.0  0.84914  0.89306  0.53474  1.0000
  H   H124      1.0  0.82713  0.89497  0.56863  1.0000
  H   H125      1.0  0.87516  0.91257  0.56665  1.0000
  H   H126      1.0  0.84419  0.86511  0.54366  1.0000
  N   N27       1.0  0.08136  0.98038  0.38686  1.0000
  C   C175      1.0  0.11255  0.97781  0.39174  1.0000
  C   C176      1.0  0.14515  0.00430  0.34736  1.0000
  O   O27       1.0  0.11087  0.94955  0.44115  1.0000
  C   C177      1.0  0.11943  0.95856  0.53472  1.0000
  H   H127      1.0  0.11752  0.93464  0.56862  1.0000
  H   H128      1.0  0.09992  0.96507  0.56665  1.0000
  H   H129      1.0  0.14738  0.98156  0.54365  1.0000
  C   C178      1.0  0.13166  0.35627  0.34464  1.0000
  N   N28       1.0  0.10105  0.29329  0.39429  1.0000
  C   C179      1.0  0.12980  0.32846  0.40250  1.0000
  O   O28       1.0  0.15472  0.33608  0.47008  1.0000
  C   C180      1.0  0.14338  0.34361  0.55500  1.0000
  H   H130      1.0  0.16489  0.34953  0.60426  1.0000
  H   H131      1.0  0.11794  0.31991  0.57889  1.0000
  H   H132      1.0  0.13973  0.36758  0.55077  1.0000
  C   C181      1.0  0.65621  0.77787  0.34469  1.0000
  N   N29       1.0  0.71919  0.81025  0.39433  1.0000
  C   C182      1.0  0.68402  0.80383  0.40254  1.0000
  O   O29       1.0  0.67640  0.82114  0.47012  1.0000
  C   C183      1.0  0.66887  0.80226  0.55504  1.0000
  H   H133      1.0  0.66295  0.81785  0.60429  1.0000
  H   H134      1.0  0.69256  0.80051  0.57893  1.0000
  H   H135      1.0  0.64490  0.77465  0.55081  1.0000
  C   C184      1.0  0.23463  0.88085  0.34468  1.0000
  N   N30       1.0  0.20224  0.91144  0.39429  1.0000
  C   C185      1.0  0.20866  0.88269  0.40251  1.0000
  O   O30       1.0  0.19134  0.85777  0.47007  1.0000
  C   C186      1.0  0.21020  0.86909  0.55501  1.0000
  H   H136      1.0  0.19460  0.84759  0.60424  1.0000
  H   H137      1.0  0.21196  0.89454  0.57890  1.0000
  H   H138      1.0  0.23782  0.87273  0.55080  1.0000
  N   N31       1.0  0.34674  0.10302  0.40928  1.0000
  C   C187      1.0  0.31149  0.07522  0.41951  1.0000
  C   C188      1.0  0.28403  0.07218  0.35850  1.0000
  O   O31       1.0  0.30476  0.04958  0.48463  1.0000
  C   C189      1.0  0.29416  0.05812  0.56922  1.0000
  H   H139      1.0  0.28945  0.03649  0.61698  1.0000
  H   H140      1.0  0.26867  0.05900  0.56300  1.0000
  H   H141      1.0  0.31583  0.08426  0.59622  1.0000
  N   N32       1.0  0.76627  0.66575  0.40937  1.0000
  C   C190      1.0  0.77374  0.70101  0.41960  1.0000
  C   C191      1.0  0.79816  0.72848  0.35862  1.0000
  O   O32       1.0  0.75482  0.70774  0.48472  1.0000
  C   C192      1.0  0.77397  0.71833  0.56931  1.0000
  H   H142      1.0  0.75705  0.72304  0.61708  1.0000
  H   H143      1.0  0.80034  0.74382  0.56310  1.0000
  H   H144      1.0  0.77843  0.69666  0.59631  1.0000
  N   N33       1.0  0.90948  0.24622  0.40934  1.0000
  C   C193      1.0  0.93727  0.23875  0.41956  1.0000
  C   C194      1.0  0.94031  0.21433  0.35861  1.0000
  O   O33       1.0  0.96291  0.25768  0.48468  1.0000
  C   C195      1.0  0.95436  0.23854  0.56928  1.0000
  H   H145      1.0  0.97600  0.25546  0.61704  1.0000
  H   H146      1.0  0.95348  0.21217  0.56308  1.0000
  H   H147      1.0  0.92823  0.23408  0.59628  1.0000
  N   N34       1.0  0.28327  0.49005  0.41526  1.0000
  C   C196      1.0  0.32061  0.50909  0.41463  1.0000
  C   C197      1.0  0.33906  0.49785  0.35418  1.0000
  O   O34       1.0  0.33859  0.53852  0.47113  1.0000
  C   C198      1.0  0.34427  0.52839  0.55962  1.0000
  H   H148      1.0  0.35883  0.55338  0.59969  1.0000
  H   H149      1.0  0.36108  0.51524  0.55733  1.0000
  H   H150      1.0  0.31816  0.51013  0.59297  1.0000
  N   N35       1.0  0.52246  0.79575  0.41531  1.0000
  C   C199      1.0  0.50340  0.81403  0.41464  1.0000
  C   C200      1.0  0.51464  0.84372  0.35416  1.0000
  O   O35       1.0  0.47397  0.80258  0.47114  1.0000
  C   C201      1.0  0.48410  0.81841  0.55961  1.0000
  H   H151      1.0  0.45910  0.80798  0.59968  1.0000
  H   H152      1.0  0.49724  0.84838  0.55729  1.0000
  H   H153      1.0  0.50236  0.81058  0.59299  1.0000
  N   N36       1.0  0.21675  0.72922  0.41530  1.0000
  C   C202      1.0  0.19846  0.69187  0.41470  1.0000
  C   C203      1.0  0.16873  0.67342  0.35432  1.0000
  O   O36       1.0  0.20994  0.67391  0.47115  1.0000
  C   C204      1.0  0.19414  0.66822  0.55966  1.0000
  H   H154      1.0  0.20459  0.65367  0.59971  1.0000
  H   H155      1.0  0.16417  0.65139  0.55741  1.0000
  H   H156      1.0  0.20198  0.69432  0.59303  1.0000
  C   C205      1.0  0.46224  0.26009  0.32885  1.0000
  N   N37       1.0  0.47078  0.31641  0.38897  1.0000
  C   C206      1.0  0.45126  0.27904  0.38852  1.0000
  O   O37       1.0  0.42234  0.26148  0.44667  1.0000
  C   C207      1.0  0.43326  0.25702  0.53540  1.0000
  H   H157      1.0  0.40859  0.24263  0.57665  1.0000
  H   H158      1.0  0.45146  0.28358  0.56691  1.0000
  H   H159      1.0  0.44680  0.24055  0.53404  1.0000
  C   C208      1.0  0.80779  0.55021  0.32893  1.0000
  N   N38       1.0  0.85562  0.54171  0.38890  1.0000
  C   C209      1.0  0.83777  0.56123  0.38849  1.0000
  O   O38       1.0  0.84915  0.59017  0.44660  1.0000
  C   C210      1.0  0.83380  0.57927  0.53536  1.0000
  H   H160      1.0  0.84410  0.60395  0.57658  1.0000
  H   H161      1.0  0.84217  0.56107  0.56687  1.0000
  H   H162      1.0  0.80380  0.56574  0.53407  1.0000
  C   C211      1.0  0.75240  0.20468  0.32895  1.0000
  N   N39       1.0  0.69608  0.15685  0.38895  1.0000
  C   C212      1.0  0.73345  0.17470  0.38851  1.0000
  O   O39       1.0  0.75101  0.16333  0.44661  1.0000
  C   C213      1.0  0.75547  0.17868  0.53538  1.0000
  H   H163      1.0  0.76986  0.16838  0.57658  1.0000
  H   H164      1.0  0.72891  0.17031  0.56689  1.0000
  H   H165      1.0  0.77194  0.20868  0.53408  1.0000
  C   C214      1.0  0.16258  0.48724  0.35634  1.0000
  N   N40       1.0  0.16783  0.54393  0.40645  1.0000
  C   C215      1.0  0.17619  0.51685  0.41857  1.0000
  O   O40       1.0  0.19748  0.51940  0.49096  1.0000
  C   C216      1.0  0.17634  0.50252  0.57073  1.0000
  H   H166      1.0  0.19536  0.50607  0.62489  1.0000
  H   H167      1.0  0.15777  0.47305  0.56108  1.0000
  H   H168      1.0  0.16053  0.51551  0.59131  1.0000
  C   C217      1.0  0.52522  0.67783  0.35634  1.0000
  N   N41       1.0  0.46854  0.62640  0.40645  1.0000
  C   C218      1.0  0.49560  0.66185  0.41854  1.0000
  O   O41       1.0  0.49301  0.68060  0.49084  1.0000
  C   C219      1.0  0.50987  0.67637  0.57071  1.0000
  H   H169      1.0  0.50629  0.69186  0.62479  1.0000
  H   H170      1.0  0.53933  0.68726  0.56115  1.0000
  H   H171      1.0  0.49686  0.64758  0.59135  1.0000
  C   C220      1.0  0.33465  0.84988  0.35623  1.0000
  N   N42       1.0  0.38609  0.84464  0.40636  1.0000
  C   C221      1.0  0.35064  0.83625  0.41843  1.0000
  O   O42       1.0  0.33188  0.81491  0.49074  1.0000
  C   C222      1.0  0.33610  0.83600  0.57060  1.0000
  H   H172      1.0  0.32062  0.81694  0.62468  1.0000
  H   H173      1.0  0.32521  0.85457  0.56102  1.0000
  H   H174      1.0  0.36490  0.85179  0.59124  1.0000
  N   N43       1.0  0.48980  0.13917  0.40040  1.0000
  C   C223      1.0  0.51713  0.13110  0.41134  1.0000
  C   C224      1.0  0.54681  0.14551  0.34932  1.0000
  O   O43       1.0  0.51423  0.10831  0.48056  1.0000
  C   C225      1.0  0.53119  0.12781  0.56224  1.0000
  H   H175      1.0  0.52746  0.10770  0.61363  1.0000
  H   H176      1.0  0.51836  0.14335  0.58625  1.0000
  H   H177      1.0  0.56069  0.14639  0.55328  1.0000
  N   N44       1.0  0.65934  0.52268  0.40039  1.0000
  C   C226      1.0  0.62394  0.49535  0.41131  1.0000
  C   C227      1.0  0.60868  0.46568  0.34925  1.0000
  O   O44       1.0  0.60405  0.49823  0.48054  1.0000
  C   C228      1.0  0.60659  0.48125  0.56219  1.0000
  H   H178      1.0  0.59020  0.48497  0.61359  1.0000
  H   H179      1.0  0.63495  0.49407  0.58621  1.0000
  H   H180      1.0  0.59567  0.45176  0.55319  1.0000
  N   N45       1.0  0.87333  0.35315  0.40035  1.0000
  C   C229      1.0  0.88139  0.38855  0.41125  1.0000
  C   C230      1.0  0.86698  0.40380  0.34920  1.0000
  O   O45       1.0  0.90417  0.40845  0.48047  1.0000
  C   C231      1.0  0.88467  0.40592  0.56213  1.0000
  H   H181      1.0  0.90478  0.42231  0.61352  1.0000
  H   H182      1.0  0.86913  0.37756  0.58617  1.0000
  H   H183      1.0  0.86609  0.41683  0.55315  1.0000
  N   N46       1.0  0.98737  0.55302  0.39094  1.0000
  C   C232      1.0  0.02455  0.57336  0.39558  1.0000
  C   C233      1.0  0.04520  0.56757  0.32901  1.0000
  O   O46       1.0  0.04043  0.59661  0.46703  1.0000
  C   C234      1.0  0.04298  0.57845  0.54654  1.0000
  H   H184      1.0  0.05600  0.59902  0.59934  1.0000
  H   H185      1.0  0.05984  0.56574  0.53482  1.0000
  H   H186      1.0  0.01579  0.55763  0.57032  1.0000
  N   N47       1.0  0.45947  0.43686  0.39113  1.0000
  C   C235      1.0  0.43911  0.45369  0.39571  1.0000
  C   C236      1.0  0.44485  0.48007  0.32903  1.0000
  O   O47       1.0  0.41587  0.44634  0.46717  1.0000
  C   C237      1.0  0.43404  0.46708  0.54663  1.0000
  H   H187      1.0  0.41347  0.45955  0.59944  1.0000
  H   H188      1.0  0.44674  0.49665  0.53484  1.0000
  H   H189      1.0  0.45486  0.46072  0.57044  1.0000
  N   N48       1.0  0.57564  0.02511  0.39101  1.0000
  C   C238      1.0  0.55882  0.98792  0.39557  1.0000
  C   C239      1.0  0.53241  0.96729  0.32893  1.0000
  O   O48       1.0  0.56620  0.97202  0.46697  1.0000
  C   C240      1.0  0.54550  0.96945  0.54650  1.0000
  H   H190      1.0  0.55305  0.95641  0.59924  1.0000
  H   H191      1.0  0.51593  0.95259  0.53478  1.0000
  H   H192      1.0  0.55186  0.99663  0.57035  1.0000
