data_image0
_chemical_formula_structural       C4NC2HNHNC2HNHNC2HNHC5H3C2O3C5H3C2O3CNCNH2NHCNCNH2NHCNCNH2NHC4NC2HNHNC2HNHNC2HNHC5H3C2O3C5H3C2O3CNCNH2NHCNCNH2NHCNCNH2NHC4NC2HNHNC2HNHNC2HNHC5H3C2O3C5H3C2O3CNCNH2NHCNCNH2NHCNCNH2NHC4NC2HNHNC2HNHNC2HNHC5H3C2O3C5H3C2O3CNCNH2NHCNCNH2NHCNCNH2NH
_chemical_formula_sum              "C120 N60 H84 O24"
_cell_length_a       43.5909
_cell_length_b       43.5909
_cell_length_c       15.0479
_cell_angle_alpha    90
_cell_angle_beta     90
_cell_angle_gamma    120

_space_group_name_H-M_alt    "P 1"
_space_group_IT_number       1

loop_
  _space_group_symop_operation_xyz
  'x, y, z'

loop_
  _atom_site_type_symbol
  _atom_site_label
  _atom_site_symmetry_multiplicity
  _atom_site_fract_x
  _atom_site_fract_y
  _atom_site_fract_z
  _atom_site_occupancy
  C   C1        1.0  0.18976  0.31995  0.24555  1.0000
  C   C2        1.0  0.21524  0.30900  0.25861  1.0000
  C   C3        1.0  0.30539  0.17680  0.42416  1.0000
  C   C4        1.0  0.27972  0.18771  0.41410  1.0000
  N   N1        1.0  0.23870  0.21508  0.33185  1.0000
  C   C5        1.0  0.21873  0.22627  0.28927  1.0000
  C   C6        1.0  0.22776  0.26203  0.29704  1.0000
  H   H1        1.0  0.19784  0.20878  0.25121  1.0000
  N   N2        1.0  0.20797  0.27464  0.25828  1.0000
  H   H2        1.0  0.18641  0.25716  0.22879  1.0000
  N   N3        1.0  0.28093  0.02282  0.33199  1.0000
  C   C7        1.0  0.26974  0.49165  0.28942  1.0000
  C   C8        1.0  0.23397  0.46493  0.29719  1.0000
  H   H3        1.0  0.28722  0.48827  0.25127  1.0000
  N   N4        1.0  0.22137  0.43253  0.25845  1.0000
  H   H4        1.0  0.23884  0.42844  0.22893  1.0000
  N   N5        1.0  0.47319  0.25730  0.33171  1.0000
  C   C9        1.0  0.00435  0.27728  0.28912  1.0000
  C   C10       1.0  0.03107  0.26824  0.29684  1.0000
  H   H5        1.0  0.00773  0.29814  0.25096  1.0000
  N   N6        1.0  0.06347  0.28803  0.25808  1.0000
  H   H6        1.0  0.06756  0.30960  0.22862  1.0000
  C   C11       1.0  0.17606  0.36901  0.24572  1.0000
  C   C12       1.0  0.13956  0.34315  0.24466  1.0000
  C   C13       1.0  0.12699  0.30625  0.24547  1.0000
  C   C14       1.0  0.15286  0.29562  0.24455  1.0000
  C   C15       1.0  0.20039  0.35645  0.24462  1.0000
  H   H7        1.0  0.14434  0.26927  0.24967  1.0000
  H   H8        1.0  0.22674  0.37428  0.25006  1.0000
  H   H9        1.0  0.12172  0.35166  0.24989  1.0000
  C   C16       1.0  0.18701  0.40543  0.25885  1.0000
  C   C17       1.0  0.09056  0.28076  0.25843  1.0000
  O   O1        1.0  0.24919  0.33447  0.27560  1.0000
  O   O2        1.0  0.16153  0.41391  0.27587  1.0000
  O   O3        1.0  0.08207  0.24680  0.27535  1.0000
  C   C18       1.0  0.31923  0.12780  0.42412  1.0000
  C   C19       1.0  0.35569  0.15373  0.42459  1.0000
  C   C20       1.0  0.36824  0.19065  0.42413  1.0000
  C   C21       1.0  0.34230  0.20117  0.42452  1.0000
  C   C22       1.0  0.29486  0.14034  0.42458  1.0000
  H   H10       1.0  0.35081  0.22752  0.41947  1.0000
  H   H11       1.0  0.26851  0.12250  0.41958  1.0000
  H   H12       1.0  0.37354  0.14522  0.41951  1.0000
  C   C23       1.0  0.30832  0.09121  0.41417  1.0000
  C   C24       1.0  0.40482  0.21631  0.41402  1.0000
  O   O4        1.0  0.24567  0.16228  0.39799  1.0000
  O   O5        1.0  0.33375  0.08260  0.39805  1.0000
  O   O6        1.0  0.41342  0.25035  0.39782  1.0000
  C   C25       1.0  0.26704  0.23562  0.38492  1.0000
  N   N7        1.0  0.25575  0.28244  0.35076  1.0000
  C   C26       1.0  0.27584  0.27162  0.39520  1.0000
  N   N8        1.0  0.30219  0.29629  0.44656  1.0000
  H   H13       1.0  0.31666  0.29072  0.48453  1.0000
  H   H14       1.0  0.30580  0.32020  0.45085  1.0000
  N   N9        1.0  0.28685  0.22201  0.41881  1.0000
  H   H15       1.0  0.30882  0.23869  0.44715  1.0000
  C   C27       1.0  0.26041  0.03061  0.38514  1.0000
  N   N10       1.0  0.21358  0.47251  0.35098  1.0000
  C   C28       1.0  0.22441  0.00342  0.39542  1.0000
  N   N11       1.0  0.19976  0.00510  0.44684  1.0000
  H   H16       1.0  0.20531  0.02517  0.48471  1.0000
  H   H17       1.0  0.17582  0.98482  0.45103  1.0000
  N   N12       1.0  0.27402  0.06405  0.41893  1.0000
  H   H18       1.0  0.25735  0.06934  0.44728  1.0000
  C   C29       1.0  0.46540  0.22898  0.38481  1.0000
  N   N13       1.0  0.02350  0.24027  0.35062  1.0000
  C   C30       1.0  0.49260  0.22018  0.39508  1.0000
  N   N14       1.0  0.49094  0.19386  0.44652  1.0000
  H   H19       1.0  0.47087  0.17933  0.48440  1.0000
  H   H20       1.0  0.51122  0.19022  0.45071  1.0000
  N   N15       1.0  0.43199  0.20918  0.41875  1.0000
  H   H21       1.0  0.42670  0.18723  0.44714  1.0000
  C   C31       1.0  0.18976  0.81995  0.24555  1.0000
  C   C32       1.0  0.21524  0.80900  0.25861  1.0000
  C   C33       1.0  0.30538  0.67680  0.42416  1.0000
  C   C34       1.0  0.27972  0.68771  0.41410  1.0000
  N   N16       1.0  0.23870  0.71508  0.33185  1.0000
  C   C35       1.0  0.21872  0.72627  0.28927  1.0000
  C   C36       1.0  0.22776  0.76203  0.29704  1.0000
  H   H22       1.0  0.19784  0.70878  0.25121  1.0000
  N   N17       1.0  0.20797  0.77464  0.25828  1.0000
  H   H23       1.0  0.18641  0.75716  0.22879  1.0000
  N   N18       1.0  0.28093  0.52282  0.33199  1.0000
  C   C37       1.0  0.26974  0.99165  0.28942  1.0000
  C   C38       1.0  0.23397  0.96493  0.29719  1.0000
  H   H24       1.0  0.28721  0.98827  0.25127  1.0000
  N   N19       1.0  0.22137  0.93253  0.25845  1.0000
  H   H25       1.0  0.23884  0.92844  0.22893  1.0000
  N   N20       1.0  0.47319  0.75730  0.33171  1.0000
  C   C39       1.0  0.00434  0.77728  0.28912  1.0000
  C   C40       1.0  0.03107  0.76824  0.29684  1.0000
  H   H26       1.0  0.00773  0.79814  0.25096  1.0000
  N   N21       1.0  0.06346  0.78803  0.25808  1.0000
  H   H27       1.0  0.06756  0.80960  0.22862  1.0000
  C   C41       1.0  0.17606  0.86901  0.24572  1.0000
  C   C42       1.0  0.13956  0.84315  0.24466  1.0000
  C   C43       1.0  0.12699  0.80625  0.24547  1.0000
  C   C44       1.0  0.15286  0.79562  0.24455  1.0000
  C   C45       1.0  0.20039  0.85645  0.24462  1.0000
  H   H28       1.0  0.14434  0.76927  0.24967  1.0000
  H   H29       1.0  0.22674  0.87428  0.25006  1.0000
  H   H30       1.0  0.12172  0.85166  0.24989  1.0000
  C   C46       1.0  0.18701  0.90543  0.25885  1.0000
  C   C47       1.0  0.09056  0.78076  0.25843  1.0000
  O   O7        1.0  0.24919  0.83447  0.27560  1.0000
  O   O8        1.0  0.16153  0.91391  0.27587  1.0000
  O   O9        1.0  0.08207  0.74680  0.27535  1.0000
  C   C48       1.0  0.31923  0.62779  0.42412  1.0000
  C   C49       1.0  0.35569  0.65373  0.42459  1.0000
  C   C50       1.0  0.36824  0.69065  0.42413  1.0000
  C   C51       1.0  0.34230  0.70117  0.42452  1.0000
  C   C52       1.0  0.29486  0.64034  0.42458  1.0000
  H   H31       1.0  0.35081  0.72752  0.41947  1.0000
  H   H32       1.0  0.26851  0.62250  0.41958  1.0000
  H   H33       1.0  0.37354  0.64522  0.41951  1.0000
  C   C53       1.0  0.30832  0.59121  0.41417  1.0000
  C   C54       1.0  0.40482  0.71631  0.41402  1.0000
  O   O10       1.0  0.24567  0.66228  0.39799  1.0000
  O   O11       1.0  0.33375  0.58260  0.39805  1.0000
  O   O12       1.0  0.41342  0.75035  0.39782  1.0000
  C   C55       1.0  0.26704  0.73562  0.38492  1.0000
  N   N22       1.0  0.25575  0.78244  0.35076  1.0000
  C   C56       1.0  0.27584  0.77162  0.39520  1.0000
  N   N23       1.0  0.30219  0.79629  0.44656  1.0000
  H   H34       1.0  0.31666  0.79072  0.48453  1.0000
  H   H35       1.0  0.30579  0.82020  0.45085  1.0000
  N   N24       1.0  0.28685  0.72201  0.41881  1.0000
  H   H36       1.0  0.30882  0.73869  0.44715  1.0000
  C   C57       1.0  0.26040  0.53061  0.38514  1.0000
  N   N25       1.0  0.21358  0.97251  0.35098  1.0000
  C   C58       1.0  0.22441  0.50342  0.39542  1.0000
  N   N26       1.0  0.19975  0.50510  0.44684  1.0000
  H   H37       1.0  0.20531  0.52517  0.48471  1.0000
  H   H38       1.0  0.17582  0.48482  0.45103  1.0000
  N   N27       1.0  0.27402  0.56405  0.41893  1.0000
  H   H39       1.0  0.25734  0.56934  0.44728  1.0000
  C   C59       1.0  0.46540  0.72898  0.38481  1.0000
  N   N28       1.0  0.02350  0.74026  0.35062  1.0000
  C   C60       1.0  0.49260  0.72018  0.39508  1.0000
  N   N29       1.0  0.49094  0.69386  0.44652  1.0000
  H   H40       1.0  0.47087  0.67933  0.48440  1.0000
  H   H41       1.0  0.51122  0.69022  0.45071  1.0000
  N   N30       1.0  0.43199  0.70918  0.41875  1.0000
  H   H42       1.0  0.42670  0.68723  0.44714  1.0000
  C   C61       1.0  0.68976  0.31995  0.24555  1.0000
  C   C62       1.0  0.71524  0.30900  0.25861  1.0000
  C   C63       1.0  0.80538  0.17680  0.42416  1.0000
  C   C64       1.0  0.77972  0.18771  0.41410  1.0000
  N   N31       1.0  0.73870  0.21508  0.33185  1.0000
  C   C65       1.0  0.71873  0.22627  0.28927  1.0000
  C   C66       1.0  0.72776  0.26203  0.29704  1.0000
  H   H43       1.0  0.69784  0.20878  0.25121  1.0000
  N   N32       1.0  0.70797  0.27464  0.25828  1.0000
  H   H44       1.0  0.68641  0.25716  0.22879  1.0000
  N   N33       1.0  0.78093  0.02282  0.33199  1.0000
  C   C67       1.0  0.76974  0.49165  0.28942  1.0000
  C   C68       1.0  0.73397  0.46493  0.29719  1.0000
  H   H45       1.0  0.78721  0.48827  0.25127  1.0000
  N   N34       1.0  0.72137  0.43253  0.25845  1.0000
  H   H46       1.0  0.73884  0.42844  0.22893  1.0000
  N   N35       1.0  0.97319  0.25730  0.33171  1.0000
  C   C69       1.0  0.50435  0.27728  0.28912  1.0000
  C   C70       1.0  0.53107  0.26824  0.29684  1.0000
  H   H47       1.0  0.50773  0.29814  0.25096  1.0000
  N   N36       1.0  0.56347  0.28803  0.25808  1.0000
  H   H48       1.0  0.56756  0.30960  0.22862  1.0000
  C   C71       1.0  0.67606  0.36901  0.24572  1.0000
  C   C72       1.0  0.63956  0.34315  0.24466  1.0000
  C   C73       1.0  0.62699  0.30625  0.24547  1.0000
  C   C74       1.0  0.65286  0.29562  0.24455  1.0000
  C   C75       1.0  0.70039  0.35645  0.24462  1.0000
  H   H49       1.0  0.64434  0.26927  0.24967  1.0000
  H   H50       1.0  0.72674  0.37428  0.25006  1.0000
  H   H51       1.0  0.62172  0.35166  0.24989  1.0000
  C   C76       1.0  0.68701  0.40543  0.25885  1.0000
  C   C77       1.0  0.59056  0.28076  0.25843  1.0000
  O   O13       1.0  0.74919  0.33447  0.27560  1.0000
  O   O14       1.0  0.66153  0.41391  0.27587  1.0000
  O   O15       1.0  0.58207  0.24680  0.27535  1.0000
  C   C78       1.0  0.81923  0.12780  0.42412  1.0000
  C   C79       1.0  0.85570  0.15373  0.42459  1.0000
  C   C80       1.0  0.86824  0.19065  0.42413  1.0000
  C   C81       1.0  0.84230  0.20117  0.42452  1.0000
  C   C82       1.0  0.79486  0.14034  0.42458  1.0000
  H   H52       1.0  0.85081  0.22752  0.41947  1.0000
  H   H53       1.0  0.76851  0.12250  0.41958  1.0000
  H   H54       1.0  0.87354  0.14522  0.41951  1.0000
  C   C83       1.0  0.80832  0.09121  0.41417  1.0000
  C   C84       1.0  0.90482  0.21631  0.41402  1.0000
  O   O16       1.0  0.74567  0.16228  0.39799  1.0000
  O   O17       1.0  0.83375  0.08260  0.39805  1.0000
  O   O18       1.0  0.91342  0.25035  0.39782  1.0000
  C   C85       1.0  0.76704  0.23562  0.38492  1.0000
  N   N37       1.0  0.75575  0.28244  0.35076  1.0000
  C   C86       1.0  0.77584  0.27162  0.39520  1.0000
  N   N38       1.0  0.80219  0.29629  0.44656  1.0000
  H   H55       1.0  0.81666  0.29072  0.48453  1.0000
  H   H56       1.0  0.80580  0.32020  0.45085  1.0000
  N   N39       1.0  0.78685  0.22201  0.41881  1.0000
  H   H57       1.0  0.80882  0.23869  0.44715  1.0000
  C   C87       1.0  0.76040  0.03061  0.38514  1.0000
  N   N40       1.0  0.71358  0.47251  0.35098  1.0000
  C   C88       1.0  0.72441  0.00342  0.39542  1.0000
  N   N41       1.0  0.69975  0.00510  0.44684  1.0000
  H   H58       1.0  0.70531  0.02517  0.48471  1.0000
  H   H59       1.0  0.67582  0.98482  0.45103  1.0000
  N   N42       1.0  0.77402  0.06405  0.41893  1.0000
  H   H60       1.0  0.75734  0.06934  0.44728  1.0000
  C   C89       1.0  0.96540  0.22898  0.38481  1.0000
  N   N43       1.0  0.52350  0.24027  0.35062  1.0000
  C   C90       1.0  0.99260  0.22018  0.39508  1.0000
  N   N44       1.0  0.99094  0.19386  0.44652  1.0000
  H   H61       1.0  0.97087  0.17933  0.48440  1.0000
  H   H62       1.0  0.01122  0.19022  0.45071  1.0000
  N   N45       1.0  0.93198  0.20918  0.41875  1.0000
  H   H63       1.0  0.92670  0.18723  0.44714  1.0000
  C   C91       1.0  0.68976  0.81995  0.24555  1.0000
  C   C92       1.0  0.71524  0.80900  0.25861  1.0000
  C   C93       1.0  0.80538  0.67680  0.42416  1.0000
  C   C94       1.0  0.77972  0.68771  0.41410  1.0000
  N   N46       1.0  0.73870  0.71508  0.33185  1.0000
  C   C95       1.0  0.71873  0.72627  0.28927  1.0000
  C   C96       1.0  0.72776  0.76203  0.29704  1.0000
  H   H64       1.0  0.69784  0.70878  0.25121  1.0000
  N   N47       1.0  0.70797  0.77464  0.25828  1.0000
  H   H65       1.0  0.68641  0.75716  0.22879  1.0000
  N   N48       1.0  0.78093  0.52282  0.33199  1.0000
  C   C97       1.0  0.76974  0.99165  0.28942  1.0000
  C   C98       1.0  0.73397  0.96493  0.29719  1.0000
  H   H66       1.0  0.78721  0.98827  0.25127  1.0000
  N   N49       1.0  0.72137  0.93253  0.25845  1.0000
  H   H67       1.0  0.73884  0.92844  0.22893  1.0000
  N   N50       1.0  0.97318  0.75730  0.33171  1.0000
  C   C99       1.0  0.50435  0.77728  0.28912  1.0000
  C   C100      1.0  0.53107  0.76824  0.29684  1.0000
  H   H68       1.0  0.50773  0.79814  0.25096  1.0000
  N   N51       1.0  0.56346  0.78803  0.25808  1.0000
  H   H69       1.0  0.56756  0.80960  0.22862  1.0000
  C   C101      1.0  0.67605  0.86901  0.24572  1.0000
  C   C102      1.0  0.63956  0.84315  0.24466  1.0000
  C   C103      1.0  0.62699  0.80625  0.24547  1.0000
  C   C104      1.0  0.65286  0.79562  0.24455  1.0000
  C   C105      1.0  0.70039  0.85645  0.24462  1.0000
  H   H70       1.0  0.64434  0.76927  0.24967  1.0000
  H   H71       1.0  0.72674  0.87428  0.25006  1.0000
  H   H72       1.0  0.62172  0.85166  0.24989  1.0000
  C   C106      1.0  0.68701  0.90543  0.25885  1.0000
  C   C107      1.0  0.59056  0.78076  0.25843  1.0000
  O   O19       1.0  0.74919  0.83447  0.27560  1.0000
  O   O20       1.0  0.66153  0.91391  0.27587  1.0000
  O   O21       1.0  0.58207  0.74680  0.27535  1.0000
  C   C108      1.0  0.81923  0.62779  0.42412  1.0000
  C   C109      1.0  0.85569  0.65373  0.42459  1.0000
  C   C110      1.0  0.86824  0.69065  0.42413  1.0000
  C   C111      1.0  0.84230  0.70117  0.42452  1.0000
  C   C112      1.0  0.79486  0.64034  0.42458  1.0000
  H   H73       1.0  0.85081  0.72752  0.41947  1.0000
  H   H74       1.0  0.76851  0.62250  0.41958  1.0000
  H   H75       1.0  0.87354  0.64522  0.41951  1.0000
  C   C113      1.0  0.80832  0.59121  0.41417  1.0000
  C   C114      1.0  0.90482  0.71631  0.41402  1.0000
  O   O22       1.0  0.74567  0.66228  0.39799  1.0000
  O   O23       1.0  0.83375  0.58260  0.39805  1.0000
  O   O24       1.0  0.91342  0.75035  0.39782  1.0000
  C   C115      1.0  0.76704  0.73562  0.38492  1.0000
  N   N52       1.0  0.75575  0.78244  0.35076  1.0000
  C   C116      1.0  0.77584  0.77162  0.39520  1.0000
  N   N53       1.0  0.80219  0.79629  0.44656  1.0000
  H   H76       1.0  0.81666  0.79072  0.48453  1.0000
  H   H77       1.0  0.80580  0.82020  0.45085  1.0000
  N   N54       1.0  0.78685  0.72201  0.41881  1.0000
  H   H78       1.0  0.80882  0.73869  0.44715  1.0000
  C   C117      1.0  0.76040  0.53061  0.38514  1.0000
  N   N55       1.0  0.71358  0.97251  0.35098  1.0000
  C   C118      1.0  0.72441  0.50342  0.39542  1.0000
  N   N56       1.0  0.69975  0.50510  0.44684  1.0000
  H   H79       1.0  0.70531  0.52517  0.48471  1.0000
  H   H80       1.0  0.67582  0.48482  0.45103  1.0000
  N   N57       1.0  0.77402  0.56405  0.41893  1.0000
  H   H81       1.0  0.75734  0.56934  0.44728  1.0000
  C   C119      1.0  0.96540  0.72898  0.38481  1.0000
  N   N58       1.0  0.52350  0.74026  0.35062  1.0000
  C   C120      1.0  0.99260  0.72018  0.39508  1.0000
  N   N59       1.0  0.99094  0.69386  0.44652  1.0000
  H   H82       1.0  0.97087  0.67933  0.48440  1.0000
  H   H83       1.0  0.01122  0.69022  0.45071  1.0000
  N   N60       1.0  0.93198  0.70918  0.41875  1.0000
  H   H84       1.0  0.92670  0.68723  0.44714  1.0000
