data_image0
_chemical_formula_structural       CONCNC2OCH3NC2OCH3NCH3CNCNCNC18H12CNCNCNC18H12CNCOCH3CNCOCH3C2OCH3
_chemical_formula_sum              "C60 O6 N12 H42"
_cell_length_a       29.3478
_cell_length_b       29.3478
_cell_length_c       14.9248
_cell_angle_alpha    90
_cell_angle_beta     90
_cell_angle_gamma    120

_space_group_name_H-M_alt    "P 1"
_space_group_IT_number       1

loop_
  _space_group_symop_operation_xyz
  'x, y, z'

loop_
  _atom_site_type_symbol
  _atom_site_label
  _atom_site_symmetry_multiplicity
  _atom_site_fract_x
  _atom_site_fract_y
  _atom_site_fract_z
  _atom_site_occupancy
  C   C1        1.0  0.02737  0.51432  0.25418  1.0000
  O   O1        1.0  0.04138  0.52133  0.16513  1.0000
  N   N1        1.0  0.03314  0.51720  0.41328  1.0000
  C   C2        1.0  0.05852  0.52989  0.33320  1.0000
  N   N2        1.0  0.51847  0.48782  0.26570  1.0000
  C   C3        1.0  0.49198  0.51432  0.25418  1.0000
  C   C4        1.0  0.47641  0.52989  0.33320  1.0000
  O   O2        1.0  0.48498  0.52132  0.16513  1.0000
  C   C5        1.0  0.45837  0.54792  0.13355  1.0000
  H   H1        1.0  0.45881  0.54749  0.06056  1.0000
  H   H2        1.0  0.47850  0.58886  0.15543  1.0000
  H   H3        1.0  0.41744  0.52779  0.15542  1.0000
  N   N3        1.0  0.51847  0.03191  0.26570  1.0000
  C   C6        1.0  0.49198  0.97893  0.25418  1.0000
  C   C7        1.0  0.47641  0.94778  0.33320  1.0000
  O   O3        1.0  0.48498  0.96493  0.16513  1.0000
  C   C8        1.0  0.45838  0.91171  0.13355  1.0000
  H   H4        1.0  0.45881  0.91258  0.06056  1.0000
  H   H5        1.0  0.41744  0.89091  0.15543  1.0000
  H   H6        1.0  0.47851  0.89091  0.15544  1.0000
  N   N4        1.0  0.97439  0.48783  0.26570  1.0000
  C   C9        1.0  0.09459  0.54792  0.13355  1.0000
  H   H7        1.0  0.09372  0.54749  0.06057  1.0000
  H   H8        1.0  0.11539  0.52779  0.15544  1.0000
  H   H9        1.0  0.11540  0.58886  0.15544  1.0000
  C   C10       1.0  0.36430  0.72357  0.34455  1.0000
  N   N5        1.0  0.38977  0.69552  0.34444  1.0000
  C   C11       1.0  0.36430  0.64199  0.34455  1.0000
  N   N6        1.0  0.31078  0.61652  0.34444  1.0000
  C   C12       1.0  0.28272  0.64199  0.34456  1.0000
  N   N7        1.0  0.31078  0.69552  0.34445  1.0000
  C   C13       1.0  0.39243  0.61387  0.34359  1.0000
  C   C14       1.0  0.44824  0.64067  0.34286  1.0000
  C   C15       1.0  0.47601  0.61306  0.34012  1.0000
  C   C16       1.0  0.44870  0.55760  0.33669  1.0000
  C   C17       1.0  0.39323  0.53029  0.34012  1.0000
  C   C18       1.0  0.36563  0.55806  0.34287  1.0000
  C   C19       1.0  0.39243  0.77982  0.34360  1.0000
  C   C20       1.0  0.44824  0.80883  0.34288  1.0000
  C   C21       1.0  0.47601  0.86421  0.34014  1.0000
  C   C22       1.0  0.44869  0.89235  0.33669  1.0000
  C   C23       1.0  0.39323  0.86421  0.34012  1.0000
  C   C24       1.0  0.36563  0.80883  0.34288  1.0000
  C   C25       1.0  0.22647  0.61387  0.34361  1.0000
  C   C26       1.0  0.19747  0.64067  0.34288  1.0000
  C   C27       1.0  0.14209  0.61306  0.34015  1.0000
  C   C28       1.0  0.11394  0.55760  0.33669  1.0000
  C   C29       1.0  0.14209  0.53029  0.34015  1.0000
  C   C30       1.0  0.19746  0.55806  0.34289  1.0000
  H   H10       1.0  0.51628  0.88376  0.33890  1.0000
  H   H11       1.0  0.46960  0.78999  0.34378  1.0000
  H   H12       1.0  0.37252  0.88376  0.33892  1.0000
  H   H13       1.0  0.32542  0.78999  0.34381  1.0000
  H   H14       1.0  0.21631  0.68087  0.34381  1.0000
  H   H15       1.0  0.12254  0.63378  0.33892  1.0000
  H   H16       1.0  0.21631  0.53670  0.34380  1.0000
  H   H17       1.0  0.12254  0.49002  0.33890  1.0000
  H   H18       1.0  0.32542  0.53670  0.34379  1.0000
  H   H19       1.0  0.37252  0.49002  0.33891  1.0000
  H   H20       1.0  0.51628  0.63378  0.33892  1.0000
  H   H21       1.0  0.46960  0.68088  0.34380  1.0000
  C   C31       1.0  0.64325  0.28147  0.33350  1.0000
  N   N8        1.0  0.61778  0.30952  0.33364  1.0000
  C   C32       1.0  0.64325  0.36304  0.33351  1.0000
  N   N9        1.0  0.69678  0.38852  0.33364  1.0000
  C   C33       1.0  0.72483  0.36304  0.33352  1.0000
  N   N10       1.0  0.69678  0.30952  0.33364  1.0000
  C   C34       1.0  0.61513  0.39117  0.33468  1.0000
  C   C35       1.0  0.55932  0.36437  0.33555  1.0000
  C   C36       1.0  0.53155  0.39197  0.33862  1.0000
  C   C37       1.0  0.55887  0.44743  0.34221  1.0000
  C   C38       1.0  0.61433  0.47474  0.33860  1.0000
  C   C39       1.0  0.64193  0.44698  0.33555  1.0000
  C   C40       1.0  0.61513  0.22522  0.33468  1.0000
  C   C41       1.0  0.55932  0.19621  0.33556  1.0000
  C   C42       1.0  0.53155  0.14084  0.33862  1.0000
  C   C43       1.0  0.55887  0.11271  0.34222  1.0000
  C   C44       1.0  0.61433  0.14084  0.33862  1.0000
  C   C45       1.0  0.64193  0.19621  0.33555  1.0000
  C   C46       1.0  0.78107  0.39117  0.33468  1.0000
  C   C47       1.0  0.81008  0.36436  0.33555  1.0000
  C   C48       1.0  0.86545  0.39197  0.33861  1.0000
  C   C49       1.0  0.89359  0.44743  0.34219  1.0000
  C   C50       1.0  0.86546  0.47474  0.33856  1.0000
  C   C51       1.0  0.81008  0.44698  0.33555  1.0000
  H   H22       1.0  0.49129  0.12130  0.33988  1.0000
  H   H23       1.0  0.53795  0.21506  0.33451  1.0000
  H   H24       1.0  0.63504  0.12130  0.33989  1.0000
  H   H25       1.0  0.68214  0.21506  0.33452  1.0000
  H   H26       1.0  0.79124  0.32416  0.33452  1.0000
  H   H27       1.0  0.88500  0.37125  0.33988  1.0000
  H   H28       1.0  0.79124  0.46834  0.33455  1.0000
  H   H29       1.0  0.88500  0.51501  0.33992  1.0000
  H   H30       1.0  0.68214  0.46834  0.33453  1.0000
  H   H31       1.0  0.63504  0.51501  0.33989  1.0000
  H   H32       1.0  0.49129  0.37125  0.33989  1.0000
  H   H33       1.0  0.53795  0.32416  0.33452  1.0000
  C   C52       1.0  0.53116  0.47513  0.34579  1.0000
  N   N11       1.0  0.48909  0.51720  0.41328  1.0000
  C   C53       1.0  0.51558  0.49071  0.42480  1.0000
  O   O4        1.0  0.52260  0.48369  0.51385  1.0000
  C   C54       1.0  0.54922  0.45708  0.54535  1.0000
  H   H34       1.0  0.54880  0.45750  0.61834  1.0000
  H   H35       1.0  0.59014  0.47722  0.52344  1.0000
  H   H36       1.0  0.52908  0.41615  0.52345  1.0000
  C   C55       1.0  0.53116  0.05729  0.34579  1.0000
  N   N12       1.0  0.48910  0.97315  0.41328  1.0000
  C   C56       1.0  0.51559  0.02614  0.42481  1.0000
  O   O5        1.0  0.52260  0.04017  0.51385  1.0000
  C   C57       1.0  0.54922  0.09339  0.54536  1.0000
  H   H37       1.0  0.54880  0.09256  0.61835  1.0000
  H   H38       1.0  0.52908  0.11419  0.52345  1.0000
  H   H39       1.0  0.59014  0.11419  0.52345  1.0000
  C   C58       1.0  0.94901  0.47513  0.34577  1.0000
  C   C59       1.0  0.98016  0.49071  0.42480  1.0000
  O   O6        1.0  0.96612  0.48368  0.51385  1.0000
  C   C60       1.0  0.91289  0.45708  0.54534  1.0000
  H   H40       1.0  0.91372  0.45750  0.61833  1.0000
  H   H41       1.0  0.89209  0.41615  0.52344  1.0000
  H   H42       1.0  0.89210  0.47722  0.52342  1.0000
