data_image0
_chemical_formula_structural       CNHC3HNO2C2HCHC16H11C17H12CNC2H2NO2CNC2H2NO2C2HNO2C12H8C13H9C4HC3NHNO2C4HC3NHNO2C3NH
_chemical_formula_sum              "C90 N12 H54 O12"
_cell_length_a       44.7517
_cell_length_b       44.7263
_cell_length_c       14.898
_cell_angle_alpha    90
_cell_angle_beta     90
_cell_angle_gamma    120.03

_space_group_name_H-M_alt    "P 1"
_space_group_IT_number       1

loop_
  _space_group_symop_operation_xyz
  'x, y, z'

loop_
  _atom_site_type_symbol
  _atom_site_label
  _atom_site_symmetry_multiplicity
  _atom_site_fract_x
  _atom_site_fract_y
  _atom_site_fract_z
  _atom_site_occupancy
  C   C1        1.0  0.07722  0.52660  0.26461  1.0000
  N   N1        1.0  0.04230  0.51003  0.26920  1.0000
  H   H1        1.0  0.08847  0.52649  0.20502  1.0000
  C   C2        1.0  0.02381  0.50814  0.34370  1.0000
  C   C3        1.0  0.04266  0.52529  0.42237  1.0000
  C   C4        1.0  0.07924  0.54313  0.41907  1.0000
  H   H2        1.0  0.09274  0.55469  0.47635  1.0000
  N   N2        1.0  0.02530  0.52350  0.50339  1.0000
  O   O1        1.0  0.03240  0.55301  0.52994  1.0000
  O   O2        1.0  0.03261  0.50892  0.56467  1.0000
  C   C5        1.0  0.09736  0.54409  0.34037  1.0000
  C   C6        1.0  0.15148  0.54460  0.30231  1.0000
  H   H3        1.0  0.13771  0.52016  0.27657  1.0000
  C   C7        1.0  0.13422  0.56112  0.33858  1.0000
  H   H4        1.0  0.14322  0.60744  0.40236  1.0000
  C   C8        1.0  0.44898  0.85547  0.30713  1.0000
  C   C9        1.0  0.43071  0.81910  0.31044  1.0000
  C   C10       1.0  0.37827  0.74261  0.29761  1.0000
  C   C11       1.0  0.35873  0.70693  0.30595  1.0000
  C   C12       1.0  0.32227  0.68999  0.30898  1.0000
  C   C13       1.0  0.30185  0.65349  0.30864  1.0000
  C   C14       1.0  0.31893  0.63404  0.30407  1.0000
  C   C15       1.0  0.35536  0.65032  0.30216  1.0000
  C   C16       1.0  0.37496  0.68680  0.30209  1.0000
  C   C17       1.0  0.37137  0.63071  0.29278  1.0000
  C   C18       1.0  0.41009  0.61109  0.34763  1.0000
  C   C19       1.0  0.39543  0.57822  0.30613  1.0000
  C   C20       1.0  0.41331  0.55973  0.30339  1.0000
  C   C21       1.0  0.26591  0.63803  0.30521  1.0000
  C   C22       1.0  0.20791  0.59388  0.34180  1.0000
  C   C23       1.0  0.18773  0.56056  0.30464  1.0000
  H   H5        1.0  0.47270  0.86767  0.27691  1.0000
  H   H6        1.0  0.44186  0.80616  0.28254  1.0000
  H   H7        1.0  0.40134  0.69883  0.29715  1.0000
  H   H8        1.0  0.31040  0.70455  0.30911  1.0000
  H   H9        1.0  0.30468  0.60765  0.30013  1.0000
  H   H10       1.0  0.40151  0.53578  0.27436  1.0000
  H   H11       1.0  0.37122  0.56698  0.27894  1.0000
  H   H12       1.0  0.19924  0.54749  0.27949  1.0000
  H   H13       1.0  0.36656  0.61699  0.23672  1.0000
  H   H14       1.0  0.39154  0.75172  0.24096  1.0000
  H   H15       1.0  0.25626  0.65004  0.26932  1.0000
  C   C24       1.0  0.55603  0.15251  0.32671  1.0000
  C   C25       1.0  0.57572  0.18880  0.33143  1.0000
  C   C26       1.0  0.62971  0.26446  0.30021  1.0000
  C   C27       1.0  0.65055  0.30016  0.30752  1.0000
  C   C28       1.0  0.68699  0.31613  0.30738  1.0000
  C   C29       1.0  0.70823  0.35251  0.30790  1.0000
  C   C30       1.0  0.69225  0.37298  0.30687  1.0000
  C   C31       1.0  0.65590  0.35782  0.30719  1.0000
  C   C32       1.0  0.63541  0.32136  0.30659  1.0000
  C   C33       1.0  0.64110  0.37868  0.29978  1.0000
  C   C34       1.0  0.60034  0.39659  0.34583  1.0000
  C   C35       1.0  0.61953  0.43272  0.33171  1.0000
  C   C36       1.0  0.60302  0.45248  0.32710  1.0000
  C   C37       1.0  0.74394  0.36721  0.30124  1.0000
  C   C38       1.0  0.80259  0.40836  0.34518  1.0000
  C   C39       1.0  0.82350  0.44473  0.34427  1.0000
  C   C40       1.0  0.85973  0.46066  0.34020  1.0000
  H   H16       1.0  0.52993  0.14124  0.31769  1.0000
  H   H17       1.0  0.56330  0.20268  0.32529  1.0000
  H   H18       1.0  0.60906  0.31007  0.30337  1.0000
  H   H19       1.0  0.69823  0.30102  0.30477  1.0000
  H   H20       1.0  0.70733  0.39934  0.30376  1.0000
  H   H21       1.0  0.61795  0.47863  0.31877  1.0000
  H   H22       1.0  0.64584  0.44513  0.32625  1.0000
  H   H23       1.0  0.87379  0.48705  0.33850  1.0000
  H   H24       1.0  0.81252  0.46005  0.34646  1.0000
  H   H25       1.0  0.64996  0.39631  0.25115  1.0000
  H   H26       1.0  0.61225  0.25567  0.25121  1.0000
  H   H27       1.0  0.75274  0.35734  0.25535  1.0000
  C   C41       1.0  0.46850  0.53931  0.26569  1.0000
  N   N3        1.0  0.48607  0.52188  0.26834  1.0000
  C   C42       1.0  0.54200  0.50340  0.26969  1.0000
  C   C43       1.0  0.55826  0.48313  0.27062  1.0000
  H   H28       1.0  0.57607  0.48729  0.22194  1.0000
  H   H29       1.0  0.45967  0.54241  0.20513  1.0000
  N   N4        1.0  0.55095  0.52990  0.20557  1.0000
  O   O3        1.0  0.54494  0.51808  0.12702  1.0000
  O   O4        1.0  0.58227  0.55263  0.21132  1.0000
  C   C44       1.0  0.46934  0.93092  0.26904  1.0000
  N   N5        1.0  0.48670  0.96593  0.27103  1.0000
  C   C45       1.0  0.50549  0.04046  0.27025  1.0000
  C   C46       1.0  0.52576  0.07702  0.27083  1.0000
  H   H30       1.0  0.52185  0.09060  0.22144  1.0000
  H   H31       1.0  0.46631  0.91883  0.20873  1.0000
  N   N6        1.0  0.47933  0.02278  0.20538  1.0000
  O   O5        1.0  0.49156  0.02844  0.12728  1.0000
  O   O6        1.0  0.45661  0.03141  0.20950  1.0000
  C   C47       1.0  0.96735  0.46050  0.28163  1.0000
  C   C48       1.0  0.93083  0.44470  0.28201  1.0000
  H   H32       1.0  0.91689  0.42385  0.24116  1.0000
  N   N7        1.0  0.98396  0.44681  0.22871  1.0000
  O   O7        1.0  0.97795  0.44752  0.14657  1.0000
  O   O8        1.0  0.97479  0.41627  0.25058  1.0000
  C   C49       1.0  0.43574  0.87494  0.34827  1.0000
  C   C50       1.0  0.39816  0.80082  0.35343  1.0000
  C   C51       1.0  0.38484  0.82037  0.39382  1.0000
  C   C52       1.0  0.40330  0.85672  0.39151  1.0000
  C   C53       1.0  0.37968  0.76481  0.36072  1.0000
  C   C54       1.0  0.39273  0.62972  0.35485  1.0000
  C   C55       1.0  0.44312  0.62449  0.38722  1.0000
  C   C56       1.0  0.44614  0.57306  0.34389  1.0000
  C   C57       1.0  0.46075  0.60581  0.38566  1.0000
  C   C58       1.0  0.24351  0.60862  0.34750  1.0000
  C   C59       1.0  0.19092  0.61071  0.37729  1.0000
  C   C60       1.0  0.15463  0.59450  0.37589  1.0000
  H   H33       1.0  0.39264  0.86980  0.42140  1.0000
  H   H34       1.0  0.36149  0.80830  0.42600  1.0000
  H   H35       1.0  0.20478  0.63465  0.40588  1.0000
  H   H36       1.0  0.45467  0.64806  0.41841  1.0000
  H   H37       1.0  0.48459  0.61652  0.41503  1.0000
  H   H38       1.0  0.39722  0.64405  0.40986  1.0000
  H   H39       1.0  0.36576  0.75488  0.41627  1.0000
  H   H40       1.0  0.25243  0.59612  0.38388  1.0000
  C   C61       1.0  0.57152  0.13185  0.33838  1.0000
  C   C62       1.0  0.61176  0.20580  0.34664  1.0000
  C   C63       1.0  0.62731  0.18522  0.35799  1.0000
  C   C64       1.0  0.60755  0.14894  0.35392  1.0000
  C   C65       1.0  0.63182  0.24161  0.35486  1.0000
  C   C66       1.0  0.61598  0.37645  0.35400  1.0000
  C   C67       1.0  0.56417  0.38105  0.35627  1.0000
  C   C68       1.0  0.56682  0.43699  0.33773  1.0000
  C   C69       1.0  0.54774  0.40087  0.35226  1.0000
  C   C70       1.0  0.76690  0.39331  0.35300  1.0000
  C   C71       1.0  0.81912  0.38845  0.34266  1.0000
  C   C72       1.0  0.87647  0.44089  0.33751  1.0000
  C   C73       1.0  0.85537  0.40445  0.33849  1.0000
  H   H41       1.0  0.61991  0.13508  0.36183  1.0000
  H   H42       1.0  0.65329  0.19649  0.36957  1.0000
  H   H43       1.0  0.80493  0.36206  0.34549  1.0000
  H   H44       1.0  0.54936  0.35501  0.36707  1.0000
  H   H45       1.0  0.52149  0.38850  0.35938  1.0000
  H   H46       1.0  0.86624  0.38905  0.33899  1.0000
  H   H47       1.0  0.60711  0.35856  0.40203  1.0000
  H   H48       1.0  0.64957  0.25068  0.40322  1.0000
  H   H49       1.0  0.75811  0.40329  0.39860  1.0000
  C   C74       1.0  0.46370  0.55380  0.34476  1.0000
  C   C75       1.0  0.49962  0.51650  0.34430  1.0000
  C   C76       1.0  0.49506  0.52978  0.42654  1.0000
  C   C77       1.0  0.47731  0.54860  0.42510  1.0000
  H   H50       1.0  0.47407  0.55832  0.48417  1.0000
  C   C78       1.0  0.51732  0.49756  0.33737  1.0000
  C   C79       1.0  0.55017  0.45721  0.33598  1.0000
  C   C80       1.0  0.52513  0.45258  0.40071  1.0000
  N   N8        1.0  0.51020  0.47249  0.39919  1.0000
  H   H51       1.0  0.51839  0.43481  0.45102  1.0000
  N   N9        1.0  0.50914  0.52529  0.50710  1.0000
  O   O9        1.0  0.48601  0.50899  0.56452  1.0000
  O   O10       1.0  0.53111  0.55377  0.54022  1.0000
  C   C81       1.0  0.45482  0.91180  0.34837  1.0000
  C   C82       1.0  0.49197  0.98509  0.34653  1.0000
  C   C83       1.0  0.47861  0.96745  0.42899  1.0000
  C   C84       1.0  0.45991  0.93086  0.42824  1.0000
  H   H52       1.0  0.45020  0.91805  0.48753  1.0000
  C   C85       1.0  0.51096  0.02173  0.33901  1.0000
  C   C86       1.0  0.55134  0.09496  0.33685  1.0000
  C   C87       1.0  0.55568  0.07466  0.40255  1.0000
  N   N10       1.0  0.53575  0.03980  0.40137  1.0000
  H   H53       1.0  0.57319  0.08579  0.45335  1.0000
  N   N11       1.0  0.48290  0.98622  0.50910  1.0000
  O   O11       1.0  0.49911  0.97960  0.56721  1.0000
  O   O12       1.0  0.45435  0.97972  0.54158  1.0000
  C   C88       1.0  0.98690  0.48966  0.33780  1.0000
  C   C89       1.0  0.91339  0.45718  0.33593  1.0000
  C   C90       1.0  0.93433  0.48640  0.38941  1.0000
  N   N12       1.0  0.96912  0.50093  0.38816  1.0000
  H   H54       1.0  0.92379  0.49664  0.43158  1.0000
