data_image0
_chemical_formula_structural       C6SiC10H10C2H2C4H2C8H6C6H4C6H2C6H6C6SiC10H10C2H2C4H2C8H6C6H4C6H2C6H6C6SiC10H10C2H2C4H2C8H6C6H4C6H2C6H6C6SiC10H10C2H2C4H2C8H6C6H4C6H2C6H6
_chemical_formula_sum              "C192 Si4 H128"
_cell_length_a       32.9111
_cell_length_b       32.9115
_cell_length_c       15.011
_cell_angle_alpha    90
_cell_angle_beta     90
_cell_angle_gamma    89.9488

_space_group_name_H-M_alt    "P 1"
_space_group_IT_number       1

loop_
  _space_group_symop_operation_xyz
  'x, y, z'

loop_
  _atom_site_type_symbol
  _atom_site_label
  _atom_site_symmetry_multiplicity
  _atom_site_fract_x
  _atom_site_fract_y
  _atom_site_fract_z
  _atom_site_occupancy
  C   C1        1.0  0.99859  0.39253  0.29394  1.0000
  C   C2        1.0  0.03355  0.40129  0.24262  1.0000
  C   C3        1.0  0.03447  0.43467  0.18431  1.0000
  C   C4        1.0  0.00017  0.46022  0.17391  1.0000
  C   C5        1.0  0.46635  0.45318  0.23036  1.0000
  C   C6        1.0  0.46528  0.41955  0.28814  1.0000
  Si  Si1       1.0  0.99971  0.99961  0.10401  1.0000
  C   C7        1.0  0.99924  0.03899  0.17392  1.0000
  C   C8        1.0  0.46495  0.06456  0.18427  1.0000
  C   C9        1.0  0.46591  0.09798  0.24248  1.0000
  C   C10       1.0  0.00084  0.10667  0.29395  1.0000
  C   C11       1.0  0.03412  0.07961  0.28824  1.0000
  C   C12       1.0  0.03306  0.04602  0.23040  1.0000
  C   C13       1.0  0.03909  0.00006  0.03411  1.0000
  C   C14       1.0  0.46033  0.49916  0.03409  1.0000
  C   C15       1.0  0.43483  0.46488  0.02369  1.0000
  C   C16       1.0  0.06456  0.03436  0.02368  1.0000
  H   H1        1.0  0.43950  0.43882  0.05924  1.0000
  H   H2        1.0  0.05987  0.06042  0.05921  1.0000
  H   H3        1.0  0.05827  0.02778  0.22750  1.0000
  H   H4        1.0  0.05994  0.08479  0.32452  1.0000
  H   H5        1.0  0.44138  0.11712  0.24330  1.0000
  H   H6        1.0  0.43889  0.05992  0.14874  1.0000
  H   H7        1.0  0.44112  0.47141  0.22745  1.0000
  H   H8        1.0  0.06053  0.43932  0.14878  1.0000
  H   H9        1.0  0.05806  0.38211  0.24332  1.0000
  H   H10       1.0  0.43946  0.41437  0.32441  1.0000
  C   C17       1.0  0.46281  0.28780  0.34702  1.0000
  C   C18       1.0  0.46201  0.32891  0.32190  1.0000
  H   H11       1.0  0.44014  0.26936  0.32370  1.0000
  H   H12       1.0  0.43872  0.33848  0.28180  1.0000
  C   C19       1.0  0.00240  0.22809  0.39096  1.0000
  C   C20       1.0  0.00402  0.14449  0.33979  1.0000
  C   C21       1.0  0.03745  0.17025  0.32208  1.0000
  C   C22       1.0  0.03662  0.21138  0.34708  1.0000
  H   H13       1.0  0.06075  0.16068  0.28202  1.0000
  H   H14       1.0  0.05933  0.22980  0.32388  1.0000
  C   C23       1.0  0.45324  0.03299  0.64431  1.0000
  C   C24       1.0  0.41963  0.03406  0.58648  1.0000
  C   C25       1.0  0.39267  0.50076  0.58065  1.0000
  C   C26       1.0  0.40145  0.46580  0.63203  1.0000
  C   C27       1.0  0.04619  0.46623  0.64432  1.0000
  C   C28       1.0  0.07980  0.46518  0.58651  1.0000
  C   C29       1.0  0.10677  0.99848  0.58072  1.0000
  C   C30       1.0  0.09795  0.03344  0.63204  1.0000
  H   H15       1.0  0.41442  0.05988  0.55018  1.0000
  H   H16       1.0  0.47145  0.05819  0.64719  1.0000
  H   H17       1.0  0.38230  0.44131  0.63138  1.0000
  H   H18       1.0  0.02802  0.44100  0.64729  1.0000
  H   H19       1.0  0.08506  0.43934  0.55032  1.0000
  H   H20       1.0  0.11708  0.05795  0.63133  1.0000
  C   C31       1.0  0.49541  0.35470  0.33972  1.0000
  C   C32       1.0  0.52815  0.33882  0.39001  1.0000
  C   C33       1.0  0.52900  0.29761  0.41498  1.0000
  C   C34       1.0  0.49703  0.27108  0.39089  1.0000
  C   C35       1.0  0.97045  0.20157  0.41518  1.0000
  C   C36       1.0  0.97127  0.16038  0.39005  1.0000
  H   H21       1.0  0.94471  0.21278  0.44458  1.0000
  H   H22       1.0  0.94624  0.14288  0.40272  1.0000
  H   H23       1.0  0.55315  0.35634  0.40289  1.0000
  H   H24       1.0  0.55465  0.28642  0.44477  1.0000
  C   C37       1.0  0.14464  0.49530  0.53506  1.0000
  C   C38       1.0  0.17051  0.46196  0.55317  1.0000
  C   C39       1.0  0.21160  0.46272  0.52793  1.0000
  C   C40       1.0  0.22822  0.49692  0.48398  1.0000
  C   C41       1.0  0.20164  0.52887  0.45969  1.0000
  C   C42       1.0  0.16044  0.52802  0.48468  1.0000
  H   H25       1.0  0.21278  0.55451  0.42981  1.0000
  H   H26       1.0  0.14283  0.55297  0.47163  1.0000
  C   C43       1.0  0.27119  0.50233  0.48377  1.0000
  C   C44       1.0  0.28786  0.53654  0.52769  1.0000
  C   C45       1.0  0.32898  0.53738  0.55268  1.0000
  C   C46       1.0  0.35480  0.50395  0.53499  1.0000
  C   C47       1.0  0.33896  0.47118  0.48481  1.0000
  C   C48       1.0  0.29778  0.47037  0.45958  1.0000
  H   H27       1.0  0.26937  0.55928  0.55069  1.0000
  H   H28       1.0  0.33854  0.56074  0.59253  1.0000
  H   H29       1.0  0.35653  0.44619  0.47188  1.0000
  H   H30       1.0  0.16089  0.43859  0.59294  1.0000
  H   H31       1.0  0.28660  0.44467  0.43010  1.0000
  H   H32       1.0  0.23007  0.44000  0.55108  1.0000
  C   C49       1.0  0.99859  0.89253  0.29394  1.0000
  C   C50       1.0  0.03355  0.90129  0.24262  1.0000
  C   C51       1.0  0.03447  0.93467  0.18431  1.0000
  C   C52       1.0  0.00017  0.96022  0.17391  1.0000
  C   C53       1.0  0.46635  0.95318  0.23036  1.0000
  C   C54       1.0  0.46528  0.91955  0.28814  1.0000
  Si  Si2       1.0  0.99971  0.49961  0.10401  1.0000
  C   C55       1.0  0.99924  0.53899  0.17392  1.0000
  C   C56       1.0  0.46495  0.56455  0.18427  1.0000
  C   C57       1.0  0.46591  0.59798  0.24248  1.0000
  C   C58       1.0  0.00084  0.60667  0.29395  1.0000
  C   C59       1.0  0.03412  0.57962  0.28824  1.0000
  C   C60       1.0  0.03306  0.54602  0.23040  1.0000
  C   C61       1.0  0.03909  0.50006  0.03411  1.0000
  C   C62       1.0  0.46033  0.99916  0.03409  1.0000
  C   C63       1.0  0.43483  0.96488  0.02369  1.0000
  C   C64       1.0  0.06456  0.53436  0.02368  1.0000
  H   H33       1.0  0.43950  0.93882  0.05924  1.0000
  H   H34       1.0  0.05987  0.56042  0.05921  1.0000
  H   H35       1.0  0.05827  0.52778  0.22750  1.0000
  H   H36       1.0  0.05994  0.58479  0.32452  1.0000
  H   H37       1.0  0.44138  0.61713  0.24330  1.0000
  H   H38       1.0  0.43889  0.55992  0.14874  1.0000
  H   H39       1.0  0.44112  0.97141  0.22745  1.0000
  H   H40       1.0  0.06053  0.93932  0.14878  1.0000
  H   H41       1.0  0.05806  0.88211  0.24332  1.0000
  H   H42       1.0  0.43946  0.91437  0.32441  1.0000
  C   C65       1.0  0.46281  0.78780  0.34702  1.0000
  C   C66       1.0  0.46200  0.82891  0.32190  1.0000
  H   H43       1.0  0.44014  0.76936  0.32370  1.0000
  H   H44       1.0  0.43872  0.83848  0.28180  1.0000
  C   C67       1.0  0.00240  0.72809  0.39096  1.0000
  C   C68       1.0  0.00402  0.64449  0.33979  1.0000
  C   C69       1.0  0.03745  0.67025  0.32208  1.0000
  C   C70       1.0  0.03662  0.71138  0.34708  1.0000
  H   H45       1.0  0.06075  0.66068  0.28202  1.0000
  H   H46       1.0  0.05933  0.72980  0.32388  1.0000
  C   C71       1.0  0.45324  0.53299  0.64431  1.0000
  C   C72       1.0  0.41963  0.53406  0.58648  1.0000
  C   C73       1.0  0.39267  0.00076  0.58065  1.0000
  C   C74       1.0  0.40145  0.96580  0.63203  1.0000
  C   C75       1.0  0.04619  0.96623  0.64432  1.0000
  C   C76       1.0  0.07980  0.96518  0.58651  1.0000
  C   C77       1.0  0.10677  0.49848  0.58072  1.0000
  C   C78       1.0  0.09795  0.53344  0.63205  1.0000
  H   H47       1.0  0.41442  0.55988  0.55018  1.0000
  H   H48       1.0  0.47145  0.55819  0.64719  1.0000
  H   H49       1.0  0.38230  0.94131  0.63138  1.0000
  H   H50       1.0  0.02802  0.94100  0.64729  1.0000
  H   H51       1.0  0.08506  0.93934  0.55032  1.0000
  H   H52       1.0  0.11708  0.55795  0.63133  1.0000
  C   C79       1.0  0.49541  0.85470  0.33972  1.0000
  C   C80       1.0  0.52815  0.83882  0.39001  1.0000
  C   C81       1.0  0.52900  0.79761  0.41498  1.0000
  C   C82       1.0  0.49703  0.77108  0.39089  1.0000
  C   C83       1.0  0.97045  0.70157  0.41518  1.0000
  C   C84       1.0  0.97127  0.66038  0.39005  1.0000
  H   H53       1.0  0.94471  0.71279  0.44458  1.0000
  H   H54       1.0  0.94624  0.64288  0.40272  1.0000
  H   H55       1.0  0.55315  0.85634  0.40289  1.0000
  H   H56       1.0  0.55465  0.78642  0.44477  1.0000
  C   C85       1.0  0.14464  0.99530  0.53506  1.0000
  C   C86       1.0  0.17051  0.96196  0.55317  1.0000
  C   C87       1.0  0.21160  0.96272  0.52793  1.0000
  C   C88       1.0  0.22822  0.99692  0.48398  1.0000
  C   C89       1.0  0.20164  0.02887  0.45969  1.0000
  C   C90       1.0  0.16044  0.02802  0.48468  1.0000
  H   H57       1.0  0.21278  0.05451  0.42981  1.0000
  H   H58       1.0  0.14283  0.05297  0.47163  1.0000
  C   C91       1.0  0.27119  0.00233  0.48377  1.0000
  C   C92       1.0  0.28786  0.03654  0.52769  1.0000
  C   C93       1.0  0.32898  0.03737  0.55268  1.0000
  C   C94       1.0  0.35480  0.00395  0.53499  1.0000
  C   C95       1.0  0.33896  0.97118  0.48481  1.0000
  C   C96       1.0  0.29778  0.97038  0.45958  1.0000
  H   H59       1.0  0.26937  0.05928  0.55069  1.0000
  H   H60       1.0  0.33854  0.06074  0.59253  1.0000
  H   H61       1.0  0.35653  0.94619  0.47188  1.0000
  H   H62       1.0  0.16089  0.93859  0.59294  1.0000
  H   H63       1.0  0.28660  0.94466  0.43010  1.0000
  H   H64       1.0  0.23007  0.94000  0.55108  1.0000
  C   C97       1.0  0.49859  0.39253  0.29394  1.0000
  C   C98       1.0  0.53355  0.40129  0.24262  1.0000
  C   C99       1.0  0.53447  0.43467  0.18431  1.0000
  C   C100      1.0  0.50017  0.46022  0.17391  1.0000
  C   C101      1.0  0.96634  0.45318  0.23036  1.0000
  C   C102      1.0  0.96528  0.41955  0.28814  1.0000
  Si  Si3       1.0  0.49971  0.99961  0.10401  1.0000
  C   C103      1.0  0.49924  0.03899  0.17392  1.0000
  C   C104      1.0  0.96495  0.06456  0.18427  1.0000
  C   C105      1.0  0.96591  0.09798  0.24248  1.0000
  C   C106      1.0  0.50084  0.10667  0.29395  1.0000
  C   C107      1.0  0.53412  0.07961  0.28824  1.0000
  C   C108      1.0  0.53306  0.04602  0.23040  1.0000
  C   C109      1.0  0.53909  0.00006  0.03411  1.0000
  C   C110      1.0  0.96033  0.49916  0.03409  1.0000
  C   C111      1.0  0.93483  0.46488  0.02369  1.0000
  C   C112      1.0  0.56456  0.03436  0.02368  1.0000
  H   H65       1.0  0.93950  0.43882  0.05924  1.0000
  H   H66       1.0  0.55987  0.06042  0.05921  1.0000
  H   H67       1.0  0.55828  0.02778  0.22750  1.0000
  H   H68       1.0  0.55994  0.08479  0.32452  1.0000
  H   H69       1.0  0.94138  0.11712  0.24330  1.0000
  H   H70       1.0  0.93889  0.05992  0.14874  1.0000
  H   H71       1.0  0.94112  0.47141  0.22745  1.0000
  H   H72       1.0  0.56053  0.43932  0.14878  1.0000
  H   H73       1.0  0.55806  0.38211  0.24332  1.0000
  H   H74       1.0  0.93946  0.41437  0.32441  1.0000
  C   C113      1.0  0.96281  0.28780  0.34702  1.0000
  C   C114      1.0  0.96200  0.32891  0.32190  1.0000
  H   H75       1.0  0.94014  0.26936  0.32370  1.0000
  H   H76       1.0  0.93872  0.33848  0.28180  1.0000
  C   C115      1.0  0.50240  0.22809  0.39096  1.0000
  C   C116      1.0  0.50402  0.14449  0.33979  1.0000
  C   C117      1.0  0.53745  0.17025  0.32208  1.0000
  C   C118      1.0  0.53661  0.21138  0.34708  1.0000
  H   H77       1.0  0.56075  0.16068  0.28202  1.0000
  H   H78       1.0  0.55933  0.22980  0.32388  1.0000
  C   C119      1.0  0.95324  0.03299  0.64431  1.0000
  C   C120      1.0  0.91963  0.03406  0.58648  1.0000
  C   C121      1.0  0.89267  0.50076  0.58065  1.0000
  C   C122      1.0  0.90145  0.46580  0.63203  1.0000
  C   C123      1.0  0.54619  0.46623  0.64432  1.0000
  C   C124      1.0  0.57980  0.46518  0.58651  1.0000
  C   C125      1.0  0.60677  0.99848  0.58072  1.0000
  C   C126      1.0  0.59795  0.03344  0.63204  1.0000
  H   H79       1.0  0.91442  0.05988  0.55018  1.0000
  H   H80       1.0  0.97145  0.05819  0.64719  1.0000
  H   H81       1.0  0.88230  0.44131  0.63138  1.0000
  H   H82       1.0  0.52802  0.44100  0.64729  1.0000
  H   H83       1.0  0.58506  0.43934  0.55032  1.0000
  H   H84       1.0  0.61708  0.05795  0.63133  1.0000
  C   C127      1.0  0.99540  0.35470  0.33972  1.0000
  C   C128      1.0  0.02815  0.33882  0.39001  1.0000
  C   C129      1.0  0.02900  0.29761  0.41498  1.0000
  C   C130      1.0  0.99703  0.27108  0.39089  1.0000
  C   C131      1.0  0.47045  0.20157  0.41518  1.0000
  C   C132      1.0  0.47127  0.16038  0.39005  1.0000
  H   H85       1.0  0.44471  0.21278  0.44458  1.0000
  H   H86       1.0  0.44623  0.14288  0.40272  1.0000
  H   H87       1.0  0.05315  0.35634  0.40289  1.0000
  H   H88       1.0  0.05465  0.28642  0.44477  1.0000
  C   C133      1.0  0.64463  0.49530  0.53506  1.0000
  C   C134      1.0  0.67051  0.46196  0.55317  1.0000
  C   C135      1.0  0.71160  0.46272  0.52793  1.0000
  C   C136      1.0  0.72821  0.49692  0.48398  1.0000
  C   C137      1.0  0.70164  0.52887  0.45969  1.0000
  C   C138      1.0  0.66043  0.52802  0.48468  1.0000
  H   H89       1.0  0.71278  0.55451  0.42981  1.0000
  H   H90       1.0  0.64282  0.55297  0.47163  1.0000
  C   C139      1.0  0.77119  0.50233  0.48377  1.0000
  C   C140      1.0  0.78786  0.53654  0.52769  1.0000
  C   C141      1.0  0.82898  0.53738  0.55268  1.0000
  C   C142      1.0  0.85480  0.50395  0.53499  1.0000
  C   C143      1.0  0.83896  0.47118  0.48481  1.0000
  C   C144      1.0  0.79778  0.47037  0.45958  1.0000
  H   H91       1.0  0.76937  0.55928  0.55069  1.0000
  H   H92       1.0  0.83854  0.56074  0.59253  1.0000
  H   H93       1.0  0.85653  0.44619  0.47188  1.0000
  H   H94       1.0  0.66089  0.43859  0.59294  1.0000
  H   H95       1.0  0.78660  0.44467  0.43010  1.0000
  H   H96       1.0  0.73007  0.44000  0.55108  1.0000
  C   C145      1.0  0.49859  0.89253  0.29394  1.0000
  C   C146      1.0  0.53355  0.90129  0.24262  1.0000
  C   C147      1.0  0.53447  0.93467  0.18431  1.0000
  C   C148      1.0  0.50017  0.96022  0.17391  1.0000
  C   C149      1.0  0.96634  0.95318  0.23036  1.0000
  C   C150      1.0  0.96528  0.91955  0.28814  1.0000
  Si  Si4       1.0  0.49971  0.49961  0.10401  1.0000
  C   C151      1.0  0.49924  0.53899  0.17392  1.0000
  C   C152      1.0  0.96495  0.56455  0.18427  1.0000
  C   C153      1.0  0.96591  0.59798  0.24248  1.0000
  C   C154      1.0  0.50084  0.60667  0.29395  1.0000
  C   C155      1.0  0.53412  0.57962  0.28824  1.0000
  C   C156      1.0  0.53306  0.54602  0.23040  1.0000
  C   C157      1.0  0.53909  0.50006  0.03411  1.0000
  C   C158      1.0  0.96033  0.99916  0.03409  1.0000
  C   C159      1.0  0.93483  0.96488  0.02369  1.0000
  C   C160      1.0  0.56456  0.53436  0.02368  1.0000
  H   H97       1.0  0.93950  0.93882  0.05924  1.0000
  H   H98       1.0  0.55987  0.56042  0.05921  1.0000
  H   H99       1.0  0.55827  0.52778  0.22750  1.0000
  H   H100      1.0  0.55994  0.58479  0.32452  1.0000
  H   H101      1.0  0.94138  0.61713  0.24330  1.0000
  H   H102      1.0  0.93889  0.55992  0.14874  1.0000
  H   H103      1.0  0.94113  0.97141  0.22745  1.0000
  H   H104      1.0  0.56053  0.93932  0.14878  1.0000
  H   H105      1.0  0.55806  0.88211  0.24332  1.0000
  H   H106      1.0  0.93946  0.91437  0.32441  1.0000
  C   C161      1.0  0.96281  0.78780  0.34702  1.0000
  C   C162      1.0  0.96200  0.82891  0.32190  1.0000
  H   H107      1.0  0.94014  0.76936  0.32370  1.0000
  H   H108      1.0  0.93872  0.83848  0.28180  1.0000
  C   C163      1.0  0.50240  0.72809  0.39096  1.0000
  C   C164      1.0  0.50402  0.64449  0.33979  1.0000
  C   C165      1.0  0.53745  0.67025  0.32208  1.0000
  C   C166      1.0  0.53661  0.71138  0.34708  1.0000
  H   H109      1.0  0.56075  0.66068  0.28202  1.0000
  H   H110      1.0  0.55933  0.72980  0.32388  1.0000
  C   C167      1.0  0.95324  0.53299  0.64431  1.0000
  C   C168      1.0  0.91963  0.53406  0.58648  1.0000
  C   C169      1.0  0.89266  0.00076  0.58065  1.0000
  C   C170      1.0  0.90145  0.96580  0.63203  1.0000
  C   C171      1.0  0.54619  0.96623  0.64432  1.0000
  C   C172      1.0  0.57980  0.96518  0.58651  1.0000
  C   C173      1.0  0.60677  0.49848  0.58072  1.0000
  C   C174      1.0  0.59795  0.53344  0.63205  1.0000
  H   H111      1.0  0.91442  0.55988  0.55018  1.0000
  H   H112      1.0  0.97145  0.55819  0.64719  1.0000
  H   H113      1.0  0.88230  0.94131  0.63138  1.0000
  H   H114      1.0  0.52802  0.94100  0.64729  1.0000
  H   H115      1.0  0.58506  0.93934  0.55032  1.0000
  H   H116      1.0  0.61708  0.55795  0.63133  1.0000
  C   C175      1.0  0.99540  0.85470  0.33972  1.0000
  C   C176      1.0  0.02815  0.83882  0.39001  1.0000
  C   C177      1.0  0.02900  0.79761  0.41498  1.0000
  C   C178      1.0  0.99703  0.77108  0.39089  1.0000
  C   C179      1.0  0.47045  0.70157  0.41518  1.0000
  C   C180      1.0  0.47127  0.66038  0.39005  1.0000
  H   H117      1.0  0.44471  0.71279  0.44458  1.0000
  H   H118      1.0  0.44623  0.64288  0.40272  1.0000
  H   H119      1.0  0.05315  0.85634  0.40289  1.0000
  H   H120      1.0  0.05465  0.78642  0.44477  1.0000
  C   C181      1.0  0.64463  0.99530  0.53506  1.0000
  C   C182      1.0  0.67051  0.96196  0.55317  1.0000
  C   C183      1.0  0.71160  0.96272  0.52793  1.0000
  C   C184      1.0  0.72821  0.99692  0.48398  1.0000
  C   C185      1.0  0.70164  0.02887  0.45969  1.0000
  C   C186      1.0  0.66043  0.02802  0.48468  1.0000
  H   H121      1.0  0.71278  0.05451  0.42981  1.0000
  H   H122      1.0  0.64282  0.05297  0.47163  1.0000
  C   C187      1.0  0.77119  0.00233  0.48377  1.0000
  C   C188      1.0  0.78786  0.03654  0.52769  1.0000
  C   C189      1.0  0.82898  0.03737  0.55268  1.0000
  C   C190      1.0  0.85480  0.00395  0.53499  1.0000
  C   C191      1.0  0.83896  0.97118  0.48481  1.0000
  C   C192      1.0  0.79778  0.97038  0.45958  1.0000
  H   H123      1.0  0.76937  0.05928  0.55069  1.0000
  H   H124      1.0  0.83854  0.06074  0.59253  1.0000
  H   H125      1.0  0.85653  0.94619  0.47188  1.0000
  H   H126      1.0  0.66089  0.93859  0.59294  1.0000
  H   H127      1.0  0.78660  0.94466  0.43010  1.0000
  H   H128      1.0  0.73007  0.94000  0.55108  1.0000
