data_image0
_chemical_formula_structural       C4OC4OH4N2C4OC4OH4N2C4OC4OH4N2CN2CHCN2CHCN2CHCN2CHCN2CHCN2CHC2HC2HN2C2HC2HN2C2HC2HN2C3NH3CHC3NH3CHC3NH3CHC3NH3CHC3NH3CHC3NH3CH
_chemical_formula_sum              "C72 O6 H48 N30"
_cell_length_a       31.754
_cell_length_b       31.754
_cell_length_c       15.0634
_cell_angle_alpha    90
_cell_angle_beta     90
_cell_angle_gamma    120

_space_group_name_H-M_alt    "P 1"
_space_group_IT_number       1

loop_
  _space_group_symop_operation_xyz
  'x, y, z'

loop_
  _atom_site_type_symbol
  _atom_site_label
  _atom_site_symmetry_multiplicity
  _atom_site_fract_x
  _atom_site_fract_y
  _atom_site_fract_z
  _atom_site_occupancy
  C   C1        1.0  0.97094  0.48365  0.31020  1.0000
  C   C2        1.0  0.86742  0.42780  0.32145  1.0000
  C   C3        1.0  0.89532  0.40440  0.32728  1.0000
  C   C4        1.0  0.94631  0.43298  0.32943  1.0000
  O   O1        1.0  0.81792  0.40190  0.32738  1.0000
  C   C5        1.0  0.02277  0.51214  0.31011  1.0000
  C   C6        1.0  0.04741  0.56282  0.32934  1.0000
  C   C7        1.0  0.09840  0.59139  0.32714  1.0000
  C   C8        1.0  0.12629  0.56798  0.32120  1.0000
  O   O2        1.0  0.17579  0.59387  0.32712  1.0000
  H   H1        1.0  0.81001  0.39181  0.38975  1.0000
  H   H2        1.0  0.18371  0.60394  0.38950  1.0000
  H   H3        1.0  0.96520  0.41551  0.34309  1.0000
  H   H4        1.0  0.02853  0.58027  0.34317  1.0000
  N   N1        1.0  0.11939  0.64016  0.33760  1.0000
  N   N2        1.0  0.87436  0.35563  0.33768  1.0000
  C   C9        1.0  0.51111  0.48624  0.31016  1.0000
  C   C10       1.0  0.56703  0.43864  0.32136  1.0000
  C   C11       1.0  0.59040  0.48994  0.32722  1.0000
  C   C12       1.0  0.56178  0.51232  0.32939  1.0000
  O   O3        1.0  0.59297  0.41508  0.32726  1.0000
  C   C13       1.0  0.48259  0.50955  0.31004  1.0000
  C   C14       1.0  0.43192  0.48349  0.32924  1.0000
  C   C15       1.0  0.40332  0.50589  0.32702  1.0000
  C   C16       1.0  0.42670  0.55718  0.32104  1.0000
  O   O4        1.0  0.40080  0.58078  0.32695  1.0000
  H   H5        1.0  0.60306  0.41725  0.38963  1.0000
  H   H6        1.0  0.39074  0.57864  0.38934  1.0000
  H   H7        1.0  0.57923  0.54868  0.34307  1.0000
  H   H8        1.0  0.41447  0.44715  0.34308  1.0000
  N   N3        1.0  0.35455  0.47808  0.33747  1.0000
  N   N4        1.0  0.63916  0.51778  0.33764  1.0000
  C   C17       1.0  0.50853  0.02383  0.31005  1.0000
  C   C18       1.0  0.55621  0.12735  0.32122  1.0000
  C   C19       1.0  0.50491  0.09945  0.32714  1.0000
  C   C20       1.0  0.48249  0.04845  0.32931  1.0000
  O   O5        1.0  0.57981  0.17684  0.32714  1.0000
  C   C21       1.0  0.48519  0.97199  0.30998  1.0000
  C   C22       1.0  0.51123  0.94736  0.32919  1.0000
  C   C23       1.0  0.48881  0.89637  0.32703  1.0000
  C   C24       1.0  0.43751  0.86848  0.32110  1.0000
  O   O6        1.0  0.41389  0.81899  0.32707  1.0000
  H   H9        1.0  0.57767  0.18476  0.38952  1.0000
  H   H10       1.0  0.41603  0.81108  0.38946  1.0000
  H   H11       1.0  0.44614  0.02957  0.34303  1.0000
  H   H12       1.0  0.54757  0.96624  0.34300  1.0000
  N   N5        1.0  0.51659  0.87538  0.33746  1.0000
  N   N6        1.0  0.47711  0.12041  0.33760  1.0000
  C   C25       1.0  0.27522  0.47375  0.32284  1.0000
  N   N7        1.0  0.24669  0.47721  0.25920  1.0000
  N   N8        1.0  0.20797  0.48018  0.27541  1.0000
  C   C26       1.0  0.32097  0.48352  0.29187  1.0000
  H   H13       1.0  0.33157  0.50000  0.23087  1.0000
  C   C27       1.0  0.52086  0.80035  0.32290  1.0000
  N   N9        1.0  0.51738  0.76834  0.25927  1.0000
  N   N10       1.0  0.51443  0.72665  0.27540  1.0000
  C   C28       1.0  0.51107  0.83631  0.29193  1.0000
  H   H14       1.0  0.49457  0.83042  0.23094  1.0000
  C   C29       1.0  0.19448  0.71940  0.32285  1.0000
  N   N11       1.0  0.22640  0.74800  0.25917  1.0000
  N   N12       1.0  0.26806  0.78677  0.27531  1.0000
  C   C30       1.0  0.15839  0.67370  0.29192  1.0000
  H   H15       1.0  0.16421  0.66308  0.23090  1.0000
  C   C31       1.0  0.71849  0.52216  0.32299  1.0000
  N   N13       1.0  0.74705  0.51869  0.25937  1.0000
  N   N14       1.0  0.78573  0.51565  0.27554  1.0000
  C   C32       1.0  0.67275  0.51236  0.29199  1.0000
  H   H16       1.0  0.66215  0.49588  0.23100  1.0000
  C   C33       1.0  0.47280  0.19542  0.32300  1.0000
  N   N15       1.0  0.47628  0.22743  0.25936  1.0000
  N   N16       1.0  0.47928  0.26913  0.27560  1.0000
  C   C34       1.0  0.48256  0.15944  0.29200  1.0000
  H   H17       1.0  0.49903  0.16531  0.23100  1.0000
  C   C35       1.0  0.79931  0.27634  0.32310  1.0000
  N   N17       1.0  0.76734  0.24782  0.25942  1.0000
  N   N18       1.0  0.72566  0.20908  0.27558  1.0000
  C   C36       1.0  0.83530  0.32209  0.29212  1.0000
  H   H18       1.0  0.82942  0.33271  0.23114  1.0000
  C   C37       1.0  0.94133  0.50481  0.29448  1.0000
  C   C38       1.0  0.89069  0.47850  0.30718  1.0000
  H   H19       1.0  0.95657  0.54086  0.27921  1.0000
  C   C39       1.0  0.10301  0.51730  0.30687  1.0000
  C   C40       1.0  0.05237  0.49100  0.29411  1.0000
  H   H20       1.0  0.03711  0.45492  0.27907  1.0000
  N   N19       1.0  0.12720  0.49227  0.30880  1.0000
  N   N20       1.0  0.86647  0.50350  0.30908  1.0000
  C   C41       1.0  0.48999  0.43548  0.29442  1.0000
  C   C42       1.0  0.51634  0.41119  0.30711  1.0000
  H   H21       1.0  0.45394  0.41465  0.27918  1.0000
  C   C43       1.0  0.47739  0.58460  0.30672  1.0000
  C   C44       1.0  0.50371  0.56029  0.29401  1.0000
  H   H22       1.0  0.53979  0.58111  0.27896  1.0000
  N   N21       1.0  0.50239  0.63381  0.30865  1.0000
  N   N22       1.0  0.49136  0.36198  0.30903  1.0000
  C   C45       1.0  0.55929  0.05343  0.29426  1.0000
  C   C46       1.0  0.58362  0.10407  0.30692  1.0000
  H   H23       1.0  0.58009  0.03818  0.27899  1.0000
  C   C47       1.0  0.41011  0.89177  0.30678  1.0000
  C   C48       1.0  0.43445  0.94241  0.29400  1.0000
  H   H24       1.0  0.41364  0.95767  0.27895  1.0000
  N   N23       1.0  0.36090  0.86758  0.30869  1.0000
  N   N24       1.0  0.63283  0.12828  0.30883  1.0000
  C   C49       1.0  0.19370  0.48206  0.35924  1.0000
  C   C50       1.0  0.22040  0.47767  0.42988  1.0000
  C   C51       1.0  0.26060  0.47099  0.41316  1.0000
  N   N25       1.0  0.28430  0.46605  0.48413  1.0000
  H   H25       1.0  0.27224  0.46423  0.54430  1.0000
  H   H26       1.0  0.30971  0.45804  0.47720  1.0000
  H   H27       1.0  0.21059  0.47960  0.49391  1.0000
  C   C52       1.0  0.15928  0.49667  0.37225  1.0000
  H   H28       1.0  0.15810  0.51098  0.43261  1.0000
  C   C53       1.0  0.51260  0.71051  0.35921  1.0000
  C   C54       1.0  0.51701  0.74158  0.42988  1.0000
  C   C55       1.0  0.52359  0.78842  0.41320  1.0000
  N   N26       1.0  0.52846  0.81699  0.48423  1.0000
  H   H29       1.0  0.52985  0.80661  0.54450  1.0000
  H   H30       1.0  0.53576  0.85021  0.47760  1.0000
  H   H31       1.0  0.51509  0.72983  0.49389  1.0000
  C   C56       1.0  0.49802  0.66148  0.37217  1.0000
  H   H32       1.0  0.48375  0.64598  0.43254  1.0000
  C   C57       1.0  0.28422  0.80103  0.35912  1.0000
  C   C58       1.0  0.25316  0.77436  0.42981  1.0000
  C   C59       1.0  0.20630  0.73413  0.41314  1.0000
  N   N27       1.0  0.17774  0.71041  0.48418  1.0000
  H   H33       1.0  0.18797  0.72252  0.54433  1.0000
  H   H34       1.0  0.14436  0.68489  0.47734  1.0000
  H   H35       1.0  0.26491  0.78422  0.49383  1.0000
  C   C60       1.0  0.33322  0.83554  0.37220  1.0000
  H   H36       1.0  0.34871  0.83675  0.43257  1.0000
  C   C61       1.0  0.79991  0.51365  0.35937  1.0000
  C   C62       1.0  0.77323  0.51804  0.43002  1.0000
  C   C63       1.0  0.73309  0.52482  0.41331  1.0000
  N   N28       1.0  0.70937  0.52969  0.48429  1.0000
  H   H37       1.0  0.72138  0.53144  0.54447  1.0000
  H   H38       1.0  0.68400  0.53777  0.47738  1.0000
  H   H39       1.0  0.78301  0.51605  0.49405  1.0000
  C   C64       1.0  0.83435  0.49907  0.37247  1.0000
  H   H40       1.0  0.83550  0.48474  0.43283  1.0000
  C   C65       1.0  0.48119  0.28527  0.35944  1.0000
  C   C66       1.0  0.47679  0.25418  0.43007  1.0000
  C   C67       1.0  0.47007  0.20729  0.41333  1.0000
  N   N29       1.0  0.46512  0.17864  0.48428  1.0000
  H   H41       1.0  0.46330  0.18887  0.54446  1.0000
  H   H42       1.0  0.45706  0.14520  0.47734  1.0000
  H   H43       1.0  0.47874  0.26592  0.49410  1.0000
  C   C68       1.0  0.49581  0.33430  0.37246  1.0000
  H   H44       1.0  0.51013  0.34980  0.43281  1.0000
  C   C69       1.0  0.70952  0.19475  0.35939  1.0000
  C   C70       1.0  0.74060  0.22142  0.43006  1.0000
  C   C71       1.0  0.78743  0.26169  0.41340  1.0000
  N   N30       1.0  0.81601  0.28537  0.48443  1.0000
  H   H45       1.0  0.80564  0.27358  0.54469  1.0000
  H   H46       1.0  0.84922  0.31130  0.47780  1.0000
  H   H47       1.0  0.72885  0.21157  0.49407  1.0000
  C   C72       1.0  0.66050  0.16030  0.37237  1.0000
  H   H48       1.0  0.64500  0.15907  0.43274  1.0000
