data_image0
_chemical_formula_structural       CNC3NCH2NC3NCH2NC2NCH2NC18H12NHNHNHNC18H12NHNHNHCNC2NCH2CNC2NCH2CNC2NCH2
_chemical_formula_sum              "C60 N20 H42"
_cell_length_a       32.2372
_cell_length_b       32.2384
_cell_length_c       14.9821
_cell_angle_alpha    90
_cell_angle_beta     90
_cell_angle_gamma    119.999

_space_group_name_H-M_alt    "P 1"
_space_group_IT_number       1

loop_
  _space_group_symop_operation_xyz
  'x, y, z'

loop_
  _atom_site_type_symbol
  _atom_site_label
  _atom_site_symmetry_multiplicity
  _atom_site_fract_x
  _atom_site_fract_y
  _atom_site_fract_z
  _atom_site_occupancy
  C   C1        1.0  0.01674  0.54137  0.28428  1.0000
  N   N1        1.0  0.49246  0.46070  0.29339  1.0000
  C   C2        1.0  0.46004  0.47560  0.28478  1.0000
  C   C3        1.0  0.46898  0.51819  0.32886  1.0000
  C   C4        1.0  0.42276  0.44990  0.23504  1.0000
  N   N2        1.0  0.38998  0.42733  0.19070  1.0000
  C   C5        1.0  0.43565  0.53759  0.32514  1.0000
  H   H1        1.0  0.43026  0.54270  0.25479  1.0000
  H   H2        1.0  0.40120  0.51071  0.35312  1.0000
  N   N3        1.0  0.54087  0.03210  0.29360  1.0000
  C   C6        1.0  0.52600  0.98480  0.28507  1.0000
  C   C7        1.0  0.48334  0.95114  0.32897  1.0000
  C   C8        1.0  0.55179  0.97323  0.23556  1.0000
  N   N4        1.0  0.57443  0.96302  0.19143  1.0000
  C   C9        1.0  0.46396  0.89842  0.32532  1.0000
  H   H3        1.0  0.45898  0.88791  0.25497  1.0000
  H   H4        1.0  0.49080  0.89086  0.35355  1.0000
  N   N5        1.0  0.96943  0.50895  0.29288  1.0000
  C   C10       1.0  0.05039  0.53242  0.32833  1.0000
  C   C11       1.0  0.02830  0.57866  0.23459  1.0000
  N   N6        1.0  0.03852  0.61146  0.19030  1.0000
  C   C12       1.0  0.10312  0.56577  0.32466  1.0000
  H   H5        1.0  0.11363  0.57119  0.25432  1.0000
  H   H6        1.0  0.11066  0.60020  0.35268  1.0000
  N   N7        1.0  0.33424  0.66731  0.34812  1.0000
  C   C13       1.0  0.36251  0.64502  0.35388  1.0000
  C   C14       1.0  0.28368  0.63903  0.35373  1.0000
  C   C15       1.0  0.35653  0.71786  0.35385  1.0000
  C   C16       1.0  0.38207  0.74232  0.43118  1.0000
  C   C17       1.0  0.40308  0.79237  0.43744  1.0000
  C   C18       1.0  0.39875  0.81904  0.36672  1.0000
  C   C19       1.0  0.37293  0.79439  0.28971  1.0000
  C   C20       1.0  0.35234  0.74435  0.28297  1.0000
  C   C21       1.0  0.36137  0.61942  0.43117  1.0000
  C   C22       1.0  0.39038  0.59838  0.43744  1.0000
  C   C23       1.0  0.42142  0.60272  0.36677  1.0000
  C   C24       1.0  0.42268  0.62863  0.28982  1.0000
  C   C25       1.0  0.39324  0.64924  0.28306  1.0000
  C   C26       1.0  0.25724  0.60834  0.28283  1.0000
  C   C27       1.0  0.20720  0.57886  0.28947  1.0000
  C   C28       1.0  0.18249  0.58004  0.36640  1.0000
  C   C29       1.0  0.20912  0.61105  0.43714  1.0000
  C   C30       1.0  0.25917  0.64011  0.43098  1.0000
  H   H7        1.0  0.38917  0.58027  0.49431  1.0000
  H   H8        1.0  0.33971  0.61639  0.48359  1.0000
  H   H9        1.0  0.39484  0.66801  0.22689  1.0000
  H   H10       1.0  0.44533  0.63283  0.23840  1.0000
  H   H11       1.0  0.38506  0.72370  0.48366  1.0000
  H   H12       1.0  0.42114  0.80928  0.49434  1.0000
  H   H13       1.0  0.27446  0.60677  0.22670  1.0000
  H   H14       1.0  0.18880  0.55623  0.23800  1.0000
  H   H15       1.0  0.19217  0.61223  0.49397  1.0000
  H   H16       1.0  0.27775  0.66175  0.48345  1.0000
  H   H17       1.0  0.33361  0.72717  0.22677  1.0000
  H   H18       1.0  0.36875  0.81283  0.23824  1.0000
  N   N8        1.0  0.45286  0.58390  0.37277  1.0000
  H   H19       1.0  0.45925  0.57992  0.43856  1.0000
  N   N9        1.0  0.41757  0.86931  0.37269  1.0000
  H   H20       1.0  0.42142  0.87967  0.43847  1.0000
  N   N10       1.0  0.13222  0.54856  0.37229  1.0000
  H   H21       1.0  0.12182  0.54212  0.43806  1.0000
  N   N11       1.0  0.66757  0.33395  0.32283  1.0000
  C   C31       1.0  0.63952  0.35647  0.31709  1.0000
  C   C32       1.0  0.71814  0.36199  0.31697  1.0000
  C   C33       1.0  0.64504  0.28337  0.31713  1.0000
  C   C34       1.0  0.61937  0.25897  0.23985  1.0000
  C   C35       1.0  0.59817  0.20890  0.23359  1.0000
  C   C36       1.0  0.60240  0.18215  0.30426  1.0000
  C   C37       1.0  0.62834  0.20674  0.38122  1.0000
  C   C38       1.0  0.64912  0.25679  0.38796  1.0000
  C   C39       1.0  0.64074  0.38206  0.23973  1.0000
  C   C40       1.0  0.61188  0.40328  0.23343  1.0000
  C   C41       1.0  0.58095  0.39914  0.30414  1.0000
  C   C42       1.0  0.57963  0.37325  0.38118  1.0000
  C   C43       1.0  0.60891  0.35247  0.38796  1.0000
  C   C44       1.0  0.74479  0.39265  0.38774  1.0000
  C   C45       1.0  0.79485  0.42189  0.38087  1.0000
  C   C46       1.0  0.81937  0.42051  0.30382  1.0000
  C   C47       1.0  0.79253  0.38954  0.23319  1.0000
  C   C48       1.0  0.74247  0.36070  0.23959  1.0000
  H   H22       1.0  0.61313  0.42136  0.17650  1.0000
  H   H23       1.0  0.66230  0.38493  0.18726  1.0000
  H   H24       1.0  0.60723  0.33368  0.44416  1.0000
  H   H25       1.0  0.55703  0.36917  0.43261  1.0000
  H   H26       1.0  0.61643  0.27765  0.18742  1.0000
  H   H27       1.0  0.58001  0.19204  0.17673  1.0000
  H   H28       1.0  0.72771  0.39436  0.44396  1.0000
  H   H29       1.0  0.81340  0.44452  0.43224  1.0000
  H   H30       1.0  0.80934  0.38824  0.17625  1.0000
  H   H31       1.0  0.72374  0.33910  0.18718  1.0000
  H   H32       1.0  0.66797  0.27393  0.44410  1.0000
  H   H33       1.0  0.63248  0.18823  0.43262  1.0000
  N   N12       1.0  0.54960  0.41808  0.29806  1.0000
  H   H34       1.0  0.54330  0.42213  0.23225  1.0000
  N   N13       1.0  0.58347  0.13187  0.29821  1.0000
  H   H35       1.0  0.57957  0.12153  0.23241  1.0000
  N   N14       1.0  0.86966  0.45182  0.29764  1.0000
  H   H36       1.0  0.87997  0.45814  0.23181  1.0000
  C   C49       1.0  0.53353  0.48380  0.34202  1.0000
  N   N15       1.0  0.51005  0.54129  0.37749  1.0000
  C   C50       1.0  0.54248  0.52640  0.38608  1.0000
  C   C51       1.0  0.57975  0.55209  0.43585  1.0000
  N   N16       1.0  0.61253  0.57465  0.48020  1.0000
  C   C52       1.0  0.56683  0.46437  0.34577  1.0000
  H   H37       1.0  0.57218  0.45923  0.41612  1.0000
  H   H38       1.0  0.60130  0.49124  0.31785  1.0000
  C   C53       1.0  0.51768  0.05008  0.34197  1.0000
  N   N17       1.0  0.46016  0.96911  0.37735  1.0000
  C   C54       1.0  0.47502  0.01642  0.38586  1.0000
  C   C55       1.0  0.44925  0.02799  0.43539  1.0000
  N   N18       1.0  0.42661  0.03821  0.47954  1.0000
  C   C56       1.0  0.53709  0.10280  0.34565  1.0000
  H   H39       1.0  0.54211  0.11331  0.41598  1.0000
  H   H40       1.0  0.51026  0.11039  0.31746  1.0000
  C   C57       1.0  0.95145  0.46785  0.34145  1.0000
  N   N19       1.0  0.03242  0.49133  0.37689  1.0000
  C   C58       1.0  0.98511  0.45890  0.38547  1.0000
  C   C59       1.0  0.97354  0.42161  0.43517  1.0000
  N   N20       1.0  0.96332  0.38882  0.47948  1.0000
  C   C60       1.0  0.89872  0.43456  0.34523  1.0000
  H   H41       1.0  0.88824  0.42918  0.41558  1.0000
  H   H42       1.0  0.89111  0.40010  0.31723  1.0000
