data_image0
_chemical_formula_structural       C4NC2NHOHC2H2CH3C2H2CH2C2H2CH3C4NC2NHOHC4NC2NHOHC4NC2NHOCHC4NC2NHOHC2H2CH2C2H2CH2C4NC2NHOCHC4NC2NHOCHC2H2CH2C2H2CH2C4NC2NHOHC4NC2NHOHC2H2CH3C2H2CH3C4NC2NHOCHC4NC2NHOHC2H2CH2C2H2CH2C2H2CH3C4NC2NHOHCNCNCNCNCNCNCNCNCNCNCNCNCNCNCNCNCNCNCNCNCNCNCNCNCNCNCNCNCNCNCNCNCNCNCNCNCNCNCNCNCNCNCNCNCNCNCNCNC2H2CH2C4NC2NHOC4NC2NHOHC4NC2NHOC2H2CH2C2H2CH2C2H4C2H2CH2C4NC2NHOHC4NC2NHOHC2H4C2H4C4NC2NHOHC4NC2NHOHC2H2CH2C2H2CH2C4NC2NHOC4NC2NHOC2H4C2H2CH2C4NC2NHOHC4NC2NHOHC4NC2NHOC2H2CH2
_chemical_formula_sum              "C264 N96 H144 O24"
_cell_length_a       54.2805
_cell_length_b       27.9859
_cell_length_c       14.842
_cell_angle_alpha    90
_cell_angle_beta     90
_cell_angle_gamma    90

_space_group_name_H-M_alt    "P 1"
_space_group_IT_number       1

loop_
  _space_group_symop_operation_xyz
  'x, y, z'

loop_
  _atom_site_type_symbol
  _atom_site_label
  _atom_site_symmetry_multiplicity
  _atom_site_fract_x
  _atom_site_fract_y
  _atom_site_fract_z
  _atom_site_occupancy
  C   C1        1.0  0.51888  0.54596  0.33032  1.0000
  C   C2        1.0  0.50023  0.53438  0.26681  1.0000
  C   C3        1.0  0.48727  0.49012  0.27155  1.0000
  C   C4        1.0  0.49278  0.45639  0.33974  1.0000
  N   N1        1.0  0.47036  0.48044  0.20627  1.0000
  C   C5        1.0  0.46531  0.51049  0.13713  1.0000
  C   C6        1.0  0.47848  0.55358  0.13080  1.0000
  N   N2        1.0  0.49513  0.56389  0.19624  1.0000
  H   H1        1.0  0.45259  0.50119  0.08957  1.0000
  O   O1        1.0  0.47452  0.58437  0.06099  1.0000
  H   H2        1.0  0.51139  0.59248  0.02066  1.0000
  C   C7        1.0  0.99852  0.96751  0.28762  1.0000
  C   C8        1.0  0.98588  0.01149  0.29167  1.0000
  H   H3        1.0  0.97269  0.01858  0.24422  1.0000
  H   H4        1.0  0.99371  0.94372  0.23829  1.0000
  C   C9        1.0  0.01730  0.08238  0.02793  1.0000
  H   H5        1.0  0.02205  0.10758  0.08116  1.0000
  H   H6        1.0  0.01605  0.04675  0.05783  1.0000
  H   H7        1.0  0.99935  0.09261  0.00063  1.0000
  C   C10       1.0  0.41114  0.31646  0.27098  1.0000
  C   C11       1.0  0.38613  0.30279  0.27273  1.0000
  H   H8        1.0  0.37991  0.27967  0.22434  1.0000
  H   H9        1.0  0.42223  0.30247  0.22180  1.0000
  C   C12       1.0  0.36257  0.36484  0.02264  1.0000
  H   H10       1.0  0.35161  0.37590  0.08048  1.0000
  H   H11       1.0  0.38151  0.35966  0.04571  1.0000
  C   C13       1.0  0.60004  0.68641  0.27478  1.0000
  C   C14       1.0  0.62495  0.70066  0.27684  1.0000
  H   H12       1.0  0.63126  0.72288  0.22712  1.0000
  H   H13       1.0  0.58911  0.69909  0.22391  1.0000
  C   C15       1.0  0.64813  0.64539  0.03099  1.0000
  H   H14       1.0  0.65915  0.63515  0.08924  1.0000
  H   H15       1.0  0.62921  0.65099  0.05399  1.0000
  H   H16       1.0  0.65550  0.67892  0.00447  1.0000
  C   C16       1.0  0.14082  0.82005  0.34831  1.0000
  C   C17       1.0  0.13096  0.85106  0.28173  1.0000
  C   C18       1.0  0.10571  0.86557  0.28460  1.0000
  C   C19       1.0  0.08964  0.84870  0.35282  1.0000
  N   N3        1.0  0.09705  0.89330  0.21625  1.0000
  C   C20       1.0  0.11103  0.90745  0.14557  1.0000
  C   C21       1.0  0.13555  0.89148  0.14028  1.0000
  N   N4        1.0  0.14457  0.86446  0.20883  1.0000
  H   H17       1.0  0.10342  0.92742  0.09520  1.0000
  O   O2        1.0  0.14968  0.90146  0.06650  1.0000
  H   H18       1.0  0.15542  0.83088  0.02322  1.0000
  C   C22       1.0  0.86958  0.18498  0.34243  1.0000
  C   C23       1.0  0.87950  0.15500  0.27434  1.0000
  C   C24       1.0  0.90467  0.13998  0.27738  1.0000
  C   C25       1.0  0.92053  0.15526  0.34753  1.0000
  N   N5        1.0  0.91343  0.11321  0.20787  1.0000
  C   C26       1.0  0.89957  0.10049  0.13586  1.0000
  C   C27       1.0  0.87511  0.11680  0.13068  1.0000
  N   N6        1.0  0.86601  0.14288  0.20038  1.0000
  H   H19       1.0  0.90721  0.08104  0.08479  1.0000
  O   O3        1.0  0.86104  0.10777  0.05632  1.0000
  H   H20       1.0  0.85515  0.17894  0.01683  1.0000
  C   C28       1.0  0.53497  0.20502  0.35141  1.0000
  C   C29       1.0  0.53656  0.23742  0.27840  1.0000
  C   C30       1.0  0.52128  0.27880  0.27592  1.0000
  C   C31       1.0  0.50380  0.28724  0.34507  1.0000
  N   N7        1.0  0.52279  0.30775  0.20234  1.0000
  C   C32       1.0  0.53795  0.29901  0.13163  1.0000
  C   C33       1.0  0.55238  0.25729  0.13240  1.0000
  N   N8        1.0  0.55126  0.22853  0.20597  1.0000
  H   H21       1.0  0.53821  0.32173  0.07782  1.0000
  O   O4        1.0  0.56742  0.24605  0.06173  1.0000
  C   C34       1.0  0.55641  0.21243  0.00040  1.0000
  H   H22       1.0  0.55249  0.17840  0.03359  1.0000
  C   C35       1.0  0.47523  0.79634  0.34831  1.0000
  C   C36       1.0  0.47330  0.76387  0.27545  1.0000
  C   C37       1.0  0.48887  0.72290  0.27107  1.0000
  C   C38       1.0  0.50696  0.71480  0.33823  1.0000
  N   N9        1.0  0.48707  0.69418  0.19726  1.0000
  C   C39       1.0  0.47130  0.70268  0.12828  1.0000
  C   C40       1.0  0.45651  0.74387  0.13101  1.0000
  N   N10       1.0  0.45798  0.77248  0.20463  1.0000
  H   H23       1.0  0.47093  0.68048  0.07383  1.0000
  O   O5        1.0  0.44077  0.75476  0.06219  1.0000
  H   H24       1.0  0.45609  0.82135  0.02852  1.0000
  C   C41       1.0  0.00861  0.75427  0.27127  1.0000
  C   C42       1.0  0.99324  0.71390  0.26812  1.0000
  H   H25       1.0  0.99556  0.69005  0.21648  1.0000
  H   H26       1.0  0.02130  0.75908  0.22103  1.0000
  C   C43       1.0  0.95425  0.71247  0.02089  1.0000
  H   H27       1.0  0.94122  0.70575  0.07534  1.0000
  H   H28       1.0  0.97118  0.72669  0.05047  1.0000
  C   C44       1.0  0.00173  0.24763  0.27779  1.0000
  C   C45       1.0  0.01733  0.28760  0.27272  1.0000
  H   H29       1.0  0.01476  0.31135  0.22107  1.0000
  H   H30       1.0  0.98872  0.24300  0.22861  1.0000
  C   C46       1.0  0.05933  0.28729  0.02346  1.0000
  H   H31       1.0  0.07296  0.29387  0.07595  1.0000
  H   H32       1.0  0.04295  0.27202  0.05524  1.0000
  C   C47       1.0  0.30657  0.08594  0.34515  1.0000
  C   C48       1.0  0.29490  0.11411  0.27813  1.0000
  C   C49       1.0  0.29709  0.16511  0.27791  1.0000
  C   C50       1.0  0.31140  0.18926  0.34384  1.0000
  N   N11       1.0  0.28657  0.18951  0.20850  1.0000
  C   C51       1.0  0.27431  0.16802  0.14001  1.0000
  C   C52       1.0  0.27285  0.11786  0.13849  1.0000
  N   N12       1.0  0.28299  0.09310  0.20785  1.0000
  H   H33       1.0  0.26702  0.18808  0.08913  1.0000
  O   O6        1.0  0.26161  0.09441  0.06904  1.0000
  C   C53       1.0  0.27882  0.07682  0.00315  1.0000
  H   H34       1.0  0.29130  0.05035  0.03233  1.0000
  C   C54       1.0  0.70458  0.91892  0.35172  1.0000
  C   C55       1.0  0.71598  0.89103  0.28369  1.0000
  C   C56       1.0  0.71365  0.84008  0.28258  1.0000
  C   C57       1.0  0.69945  0.81576  0.34860  1.0000
  N   N13       1.0  0.72394  0.81595  0.21237  1.0000
  C   C58       1.0  0.73612  0.83768  0.14394  1.0000
  C   C59       1.0  0.73770  0.88783  0.14330  1.0000
  N   N14       1.0  0.72780  0.91231  0.21347  1.0000
  H   H35       1.0  0.74322  0.81782  0.09241  1.0000
  O   O7        1.0  0.74895  0.91154  0.07416  1.0000
  C   C60       1.0  0.73173  0.93015  0.00930  1.0000
  H   H36       1.0  0.71947  0.95664  0.03964  1.0000
  C   C61       1.0  0.18719  0.66065  0.27900  1.0000
  C   C62       1.0  0.18961  0.61044  0.27822  1.0000
  H   H37       1.0  0.18021  0.59158  0.23010  1.0000
  H   H38       1.0  0.17625  0.67629  0.23117  1.0000
  C   C63       1.0  0.23179  0.57686  0.01816  1.0000
  H   H39       1.0  0.24218  0.55960  0.07190  1.0000
  H   H40       1.0  0.22106  0.60589  0.04802  1.0000
  C   C64       1.0  0.82297  0.34410  0.27318  1.0000
  C   C65       1.0  0.82045  0.39427  0.27157  1.0000
  H   H41       1.0  0.82966  0.41294  0.22274  1.0000
  H   H42       1.0  0.83378  0.32830  0.22515  1.0000
  C   C66       1.0  0.77890  0.43018  0.01201  1.0000
  H   H43       1.0  0.76848  0.44770  0.06537  1.0000
  H   H44       1.0  0.78986  0.40169  0.04257  1.0000
  C   C67       1.0  0.28220  0.35522  0.33874  1.0000
  C   C68       1.0  0.28008  0.39192  0.27303  1.0000
  C   C69       1.0  0.26092  0.42693  0.27814  1.0000
  C   C70       1.0  0.24317  0.42584  0.34822  1.0000
  N   N15       1.0  0.25918  0.45956  0.21044  1.0000
  C   C71       1.0  0.27451  0.46032  0.13846  1.0000
  C   C72       1.0  0.29275  0.42489  0.13130  1.0000
  N   N16       1.0  0.29497  0.39256  0.19912  1.0000
  H   H45       1.0  0.27210  0.48510  0.08879  1.0000
  O   O8        1.0  0.30744  0.42227  0.05677  1.0000
  H   H46       1.0  0.29680  0.35380  0.01378  1.0000
  C   C73       1.0  0.72846  0.64999  0.33898  1.0000
  C   C74       1.0  0.73050  0.61443  0.27110  1.0000
  C   C75       1.0  0.74957  0.57921  0.27428  1.0000
  C   C76       1.0  0.76722  0.57900  0.34464  1.0000
  N   N17       1.0  0.75126  0.54766  0.20476  1.0000
  C   C77       1.0  0.73594  0.54815  0.13276  1.0000
  C   C78       1.0  0.71777  0.58383  0.12758  1.0000
  N   N18       1.0  0.71561  0.61508  0.19721  1.0000
  H   H47       1.0  0.73834  0.52420  0.08164  1.0000
  O   O9        1.0  0.70302  0.58765  0.05339  1.0000
  H   H48       1.0  0.71363  0.65679  0.01430  1.0000
  C   C79       1.0  0.26571  0.88795  0.27679  1.0000
  C   C80       1.0  0.24660  0.85377  0.28090  1.0000
  H   H49       1.0  0.24595  0.82776  0.23246  1.0000
  H   H50       1.0  0.27841  0.88507  0.22609  1.0000
  C   C81       1.0  0.21294  0.89053  0.03215  1.0000
  H   H51       1.0  0.20068  0.89129  0.09027  1.0000
  H   H52       1.0  0.23121  0.90178  0.05473  1.0000
  H   H53       1.0  0.21383  0.85376  0.00748  1.0000
  C   C82       1.0  0.74506  0.11587  0.27824  1.0000
  C   C83       1.0  0.76408  0.15025  0.28050  1.0000
  H   H54       1.0  0.76471  0.17548  0.23060  1.0000
  H   H55       1.0  0.73235  0.11780  0.22739  1.0000
  C   C84       1.0  0.79798  0.12050  0.03389  1.0000
  H   H56       1.0  0.81034  0.12073  0.09175  1.0000
  H   H57       1.0  0.77974  0.10962  0.05751  1.0000
  H   H58       1.0  0.79703  0.15684  0.00706  1.0000
  C   C85       1.0  0.15505  0.44360  0.35673  1.0000
  C   C86       1.0  0.14638  0.41198  0.28919  1.0000
  C   C87       1.0  0.12192  0.39339  0.29289  1.0000
  C   C88       1.0  0.10583  0.40637  0.36404  1.0000
  N   N19       1.0  0.11411  0.36567  0.22308  1.0000
  C   C89       1.0  0.12834  0.35484  0.15086  1.0000
  C   C90       1.0  0.15223  0.37407  0.14595  1.0000
  N   N20       1.0  0.16030  0.40147  0.21545  1.0000
  H   H59       1.0  0.12147  0.33411  0.10014  1.0000
  O   O10       1.0  0.16712  0.36531  0.07364  1.0000
  C   C91       1.0  0.16618  0.40263  0.00703  1.0000
  H   H60       1.0  0.17247  0.43674  0.03457  1.0000
  C   C92       1.0  0.85526  0.56084  0.34594  1.0000
  C   C93       1.0  0.86402  0.59203  0.27786  1.0000
  C   C94       1.0  0.88864  0.60980  0.28071  1.0000
  C   C95       1.0  0.90473  0.59637  0.35147  1.0000
  N   N21       1.0  0.89655  0.63729  0.21073  1.0000
  C   C96       1.0  0.88222  0.64864  0.13906  1.0000
  C   C97       1.0  0.85815  0.63020  0.13494  1.0000
  N   N22       1.0  0.85000  0.60304  0.20467  1.0000
  H   H61       1.0  0.88915  0.66913  0.08809  1.0000
  O   O11       1.0  0.84312  0.63963  0.06328  1.0000
  H   H62       1.0  0.83674  0.56846  0.02460  1.0000
  C   C98       1.0  0.39601  0.93846  0.25785  1.0000
  C   C99       1.0  0.37186  0.95660  0.26118  1.0000
  H   H63       1.0  0.36635  0.98009  0.21226  1.0000
  H   H64       1.0  0.40736  0.94982  0.20709  1.0000
  C   C100      1.0  0.34445  0.90265  0.01432  1.0000
  H   H65       1.0  0.33220  0.89287  0.06952  1.0000
  H   H66       1.0  0.36303  0.90683  0.04170  1.0000
  C   C101      1.0  0.61490  0.06490  0.26941  1.0000
  C   C102      1.0  0.63918  0.04752  0.27200  1.0000
  H   H67       1.0  0.64480  0.02443  0.22259  1.0000
  H   H68       1.0  0.60361  0.05352  0.21846  1.0000
  C   C103      1.0  0.66729  0.10230  0.02456  1.0000
  H   H69       1.0  0.67960  0.11269  0.07919  1.0000
  H   H70       1.0  0.64887  0.09721  0.05282  1.0000
  C   C104      1.0  0.00369  0.46482  0.29141  1.0000
  C   C105      1.0  0.98631  0.50194  0.29147  1.0000
  H   H71       1.0  0.97324  0.50281  0.24172  1.0000
  H   H72       1.0  0.00262  0.43947  0.24182  1.0000
  C   C106      1.0  0.00428  0.58946  0.03002  1.0000
  H   H73       1.0  0.00517  0.61731  0.08124  1.0000
  H   H74       1.0  0.00776  0.55512  0.06279  1.0000
  H   H75       1.0  0.98572  0.58956  0.00143  1.0000
  C   C107      1.0  0.52319  0.03828  0.33078  1.0000
  C   C108      1.0  0.50476  0.03634  0.26345  1.0000
  C   C109      1.0  0.48707  0.99891  0.26381  1.0000
  C   C110      1.0  0.48793  0.96324  0.33142  1.0000
  N   N23       1.0  0.47026  0.99775  0.19565  1.0000
  C   C111      1.0  0.46963  0.03020  0.12785  1.0000
  C   C112      1.0  0.48749  0.06657  0.12618  1.0000
  N   N24       1.0  0.50410  0.06842  0.19447  1.0000
  H   H76       1.0  0.45672  0.02738  0.07809  1.0000
  O   O12       1.0  0.48801  0.09971  0.05865  1.0000
  H   H77       1.0  0.52489  0.08956  0.01980  1.0000
  C   C113      1.0  0.44689  0.35791  0.33662  1.0000
  N   N25       1.0  0.45668  0.40296  0.33804  1.0000
  C   C114      1.0  0.48158  0.41036  0.34178  1.0000
  N   N26       1.0  0.49661  0.37158  0.34339  1.0000
  C   C115      1.0  0.48752  0.32652  0.34244  1.0000
  N   N27       1.0  0.46271  0.32019  0.33935  1.0000
  C   C116      1.0  0.56432  0.64516  0.33992  1.0000
  N   N28       1.0  0.55486  0.59985  0.33851  1.0000
  C   C117      1.0  0.53002  0.59204  0.33266  1.0000
  N   N29       1.0  0.51479  0.63056  0.33097  1.0000
  C   C118      1.0  0.52352  0.67584  0.33448  1.0000
  N   N30       1.0  0.54828  0.68253  0.33871  1.0000
  C   C119      1.0  0.06375  0.85794  0.35131  1.0000
  N   N31       1.0  0.05396  0.90299  0.34996  1.0000
  C   C120      1.0  0.02905  0.91038  0.34629  1.0000
  N   N32       1.0  0.01403  0.87160  0.34464  1.0000
  C   C121      1.0  0.02313  0.82654  0.34552  1.0000
  N   N33       1.0  0.04793  0.82022  0.34858  1.0000
  C   C122      1.0  0.94631  0.14516  0.34822  1.0000
  N   N34       1.0  0.95579  0.09985  0.34959  1.0000
  C   C123      1.0  0.98063  0.09208  0.35539  1.0000
  N   N35       1.0  0.99585  0.13061  0.35705  1.0000
  C   C124      1.0  0.98711  0.17588  0.35358  1.0000
  N   N36       1.0  0.96235  0.18255  0.34940  1.0000
  C   C125      1.0  0.31583  0.23977  0.34167  1.0000
  N   N37       1.0  0.29721  0.27265  0.34011  1.0000
  C   C126      1.0  0.30171  0.32075  0.33810  1.0000
  N   N38       1.0  0.32567  0.33554  0.33875  1.0000
  C   C127      1.0  0.34482  0.30406  0.34054  1.0000
  N   N39       1.0  0.33943  0.25650  0.34172  1.0000
  C   C128      1.0  0.69495  0.76532  0.34598  1.0000
  N   N40       1.0  0.71357  0.73249  0.34273  1.0000
  C   C129      1.0  0.70902  0.68444  0.34034  1.0000
  N   N41       1.0  0.68510  0.66958  0.34233  1.0000
  C   C130      1.0  0.66599  0.70107  0.34600  1.0000
  N   N42       1.0  0.67135  0.74862  0.34737  1.0000
  C   C131      1.0  0.19480  0.73979  0.34625  1.0000
  N   N43       1.0  0.21343  0.77267  0.34781  1.0000
  C   C132      1.0  0.20893  0.82076  0.34980  1.0000
  N   N44       1.0  0.18497  0.83555  0.34917  1.0000
  C   C133      1.0  0.16581  0.80407  0.34737  1.0000
  N   N45       1.0  0.17120  0.75651  0.34621  1.0000
  C   C134      1.0  0.81568  0.26533  0.34199  1.0000
  N   N46       1.0  0.79707  0.23249  0.34526  1.0000
  C   C135      1.0  0.80161  0.18445  0.34769  1.0000
  N   N47       1.0  0.82554  0.16959  0.34570  1.0000
  C   C136      1.0  0.84465  0.20109  0.34201  1.0000
  N   N48       1.0  0.83929  0.24864  0.34061  1.0000
  C   C137      1.0  0.04668  0.34194  0.34262  1.0000
  N   N49       1.0  0.07139  0.34978  0.35152  1.0000
  C   C138      1.0  0.08035  0.39510  0.36167  1.0000
  N   N50       1.0  0.06417  0.43214  0.36339  1.0000
  C   C139      1.0  0.03959  0.42508  0.35477  1.0000
  N   N51       1.0  0.03123  0.37993  0.34447  1.0000
  C   C140      1.0  0.96433  0.65969  0.34005  1.0000
  N   N52       1.0  0.93949  0.65227  0.34282  1.0000
  C   C141      1.0  0.93025  0.60701  0.34959  1.0000
  N   N53       1.0  0.94619  0.56962  0.35364  1.0000
  C   C142      1.0  0.97085  0.57662  0.35230  1.0000
  N   N54       1.0  0.97966  0.62162  0.34567  1.0000
  C   C143      1.0  0.46396  0.84191  0.34507  1.0000
  N   N55       1.0  0.43925  0.84975  0.33639  1.0000
  C   C144      1.0  0.43029  0.89508  0.32638  1.0000
  N   N56       1.0  0.44647  0.93212  0.32460  1.0000
  C   C145      1.0  0.47105  0.92504  0.33310  1.0000
  N   N57       1.0  0.47941  0.87989  0.34328  1.0000
  C   C146      1.0  0.54632  0.15966  0.34773  1.0000
  N   N58       1.0  0.57116  0.15224  0.34506  1.0000
  C   C147      1.0  0.58040  0.10697  0.33831  1.0000
  N   N59       1.0  0.56445  0.06959  0.33424  1.0000
  C   C148      1.0  0.53979  0.07659  0.33554  1.0000
  N   N60       1.0  0.53099  0.12159  0.34215  1.0000
  C   C149      1.0  0.20355  0.53478  0.34583  1.0000
  N   N61       1.0  0.22407  0.50622  0.34621  1.0000
  C   C150      1.0  0.22236  0.45735  0.35007  1.0000
  N   N62       1.0  0.19945  0.43760  0.35288  1.0000
  C   C151      1.0  0.17873  0.46477  0.35286  1.0000
  N   N63       1.0  0.18116  0.51304  0.34953  1.0000
  C   C152      1.0  0.80664  0.47008  0.33860  1.0000
  N   N64       1.0  0.78615  0.49867  0.34092  1.0000
  C   C153      1.0  0.78798  0.54751  0.34441  1.0000
  N   N65       1.0  0.81088  0.56728  0.34499  1.0000
  C   C154      1.0  0.83153  0.53999  0.34288  1.0000
  N   N66       1.0  0.82905  0.49175  0.34014  1.0000
  C   C155      1.0  0.30711  0.03476  0.34207  1.0000
  N   N67       1.0  0.28658  0.00622  0.34172  1.0000
  C   C156      1.0  0.28828  0.95735  0.33791  1.0000
  N   N68       1.0  0.31118  0.93758  0.33511  1.0000
  C   C157      1.0  0.33191  0.96474  0.33510  1.0000
  N   N69       1.0  0.32949  0.01300  0.33840  1.0000
  C   C158      1.0  0.70402  0.97006  0.34941  1.0000
  N   N70       1.0  0.72450  0.99867  0.34711  1.0000
  C   C159      1.0  0.72267  0.04751  0.34361  1.0000
  N   N71       1.0  0.69975  0.06726  0.34303  1.0000
  C   C160      1.0  0.67911  0.03995  0.34512  1.0000
  N   N72       1.0  0.68160  0.99171  0.34786  1.0000
  C   C161      1.0  0.51211  0.46750  0.40044  1.0000
  C   C162      1.0  0.52476  0.51147  0.39639  1.0000
  H   H78       1.0  0.53793  0.51857  0.44388  1.0000
  H   H79       1.0  0.51690  0.44373  0.44984  1.0000
  C   C163      1.0  0.49345  0.58224  0.65996  1.0000
  H   H80       1.0  0.48872  0.60742  0.60668  1.0000
  H   H81       1.0  0.49471  0.54659  0.63012  1.0000
  C   C164      1.0  0.99179  0.04601  0.35765  1.0000
  C   C165      1.0  0.01044  0.03444  0.42115  1.0000
  C   C166      1.0  0.02339  0.99016  0.41643  1.0000
  C   C167      1.0  0.01785  0.95641  0.34831  1.0000
  N   N73       1.0  0.04031  0.98049  0.48169  1.0000
  C   C168      1.0  0.04538  0.01056  0.55078  1.0000
  C   C169      1.0  0.03222  0.05366  0.55707  1.0000
  N   N74       1.0  0.01556  0.06397  0.49166  1.0000
  H   H82       1.0  0.05811  0.00128  0.59829  1.0000
  O   O13       1.0  0.03621  0.08448  0.62682  1.0000
  C   C170      1.0  0.36983  0.32002  0.33962  1.0000
  C   C171      1.0  0.37968  0.35104  0.40618  1.0000
  C   C172      1.0  0.40493  0.36555  0.40329  1.0000
  C   C173      1.0  0.42101  0.34863  0.33510  1.0000
  N   N75       1.0  0.41360  0.39326  0.47165  1.0000
  C   C174      1.0  0.39962  0.40740  0.54234  1.0000
  C   C175      1.0  0.37510  0.39148  0.54760  1.0000
  N   N76       1.0  0.36607  0.36445  0.47906  1.0000
  H   H83       1.0  0.40723  0.42743  0.59267  1.0000
  O   O14       1.0  0.36097  0.40148  0.62136  1.0000
  H   H84       1.0  0.35521  0.33091  0.66466  1.0000
  C   C176      1.0  0.64106  0.68495  0.34560  1.0000
  C   C177      1.0  0.63114  0.65498  0.41372  1.0000
  C   C178      1.0  0.60598  0.63996  0.41070  1.0000
  C   C179      1.0  0.59010  0.65530  0.34063  1.0000
  N   N77       1.0  0.59722  0.61318  0.48020  1.0000
  C   C180      1.0  0.61110  0.60038  0.55212  1.0000
  C   C181      1.0  0.63555  0.61675  0.55732  1.0000
  N   N78       1.0  0.64464  0.64285  0.48765  1.0000
  H   H85       1.0  0.60345  0.58104  0.60331  1.0000
  O   O15       1.0  0.64962  0.60775  0.63170  1.0000
  C   C182      1.0  0.09950  0.81649  0.41691  1.0000
  C   C183      1.0  0.12451  0.80280  0.41516  1.0000
  H   H86       1.0  0.13072  0.77969  0.46355  1.0000
  H   H87       1.0  0.08841  0.80251  0.46608  1.0000
  C   C184      1.0  0.14806  0.86482  0.66524  1.0000
  H   H88       1.0  0.15903  0.87587  0.60739  1.0000
  H   H89       1.0  0.12912  0.85964  0.64217  1.0000
  C   C185      1.0  0.91058  0.18639  0.41334  1.0000
  C   C186      1.0  0.88568  0.20066  0.41123  1.0000
  H   H90       1.0  0.87937  0.22288  0.46094  1.0000
  H   H91       1.0  0.92151  0.19907  0.46423  1.0000
  C   C187      1.0  0.86253  0.14541  0.65700  1.0000
  H   H92       1.0  0.85151  0.13514  0.59877  1.0000
  H   H93       1.0  0.88144  0.15100  0.63399  1.0000
  C   C188      1.0  0.50205  0.25426  0.41670  1.0000
  C   C189      1.0  0.51742  0.21389  0.41984  1.0000
  H   H94       1.0  0.51509  0.19003  0.47145  1.0000
  H   H95       1.0  0.48936  0.25907  0.46694  1.0000
  H   H96       1.0  0.56944  0.20572  0.61262  1.0000
  H   H97       1.0  0.53948  0.22663  0.63747  1.0000
  C   C190      1.0  0.50887  0.74762  0.41013  1.0000
  C   C191      1.0  0.49327  0.78759  0.41510  1.0000
  H   H98       1.0  0.49585  0.81139  0.46669  1.0000
  H   H99       1.0  0.52189  0.74304  0.45932  1.0000
  C   C192      1.0  0.45138  0.78709  0.66426  1.0000
  H   H100      1.0  0.43778  0.79368  0.61170  1.0000
  H   H101      1.0  0.46777  0.77179  0.63257  1.0000
  C   C193      1.0  0.97567  0.70506  0.33652  1.0000
  C   C194      1.0  0.97409  0.73745  0.40954  1.0000
  C   C195      1.0  0.98938  0.77881  0.41205  1.0000
  C   C196      1.0  0.00684  0.78726  0.34288  1.0000
  N   N79       1.0  0.98786  0.80776  0.48561  1.0000
  C   C197      1.0  0.97268  0.79905  0.55629  1.0000
  C   C198      1.0  0.95826  0.75731  0.55553  1.0000
  N   N80       1.0  0.95938  0.72855  0.48196  1.0000
  H   H102      1.0  0.97244  0.82174  0.61014  1.0000
  O   O16       1.0  0.94323  0.74606  0.62621  1.0000
  H   H103      1.0  0.95818  0.67844  0.65438  1.0000
  C   C199      1.0  0.03538  0.29641  0.33945  1.0000
  C   C200      1.0  0.03732  0.26396  0.41235  1.0000
  C   C201      1.0  0.02176  0.22299  0.41686  1.0000
  C   C202      1.0  0.00366  0.21485  0.34975  1.0000
  N   N81       1.0  0.02356  0.19430  0.49071  1.0000
  C   C203      1.0  0.03934  0.20286  0.55968  1.0000
  C   C204      1.0  0.05415  0.24401  0.55680  1.0000
  N   N82       1.0  0.05266  0.27259  0.48312  1.0000
  H   H104      1.0  0.03975  0.18062  0.61407  1.0000
  O   O17       1.0  0.06991  0.25492  0.62552  1.0000
  H   H105      1.0  0.05463  0.32154  0.65917  1.0000
  C   C205      1.0  0.32346  0.16064  0.40894  1.0000
  C   C206      1.0  0.32105  0.11043  0.40974  1.0000
  H   H106      1.0  0.33044  0.09157  0.45785  1.0000
  H   H107      1.0  0.33439  0.17628  0.45679  1.0000
  H   H108      1.0  0.26842  0.05957  0.61609  1.0000
  H   H109      1.0  0.28956  0.10585  0.63996  1.0000
  C   C207      1.0  0.68767  0.84410  0.41479  1.0000
  C   C208      1.0  0.69022  0.89426  0.41642  1.0000
  H   H110      1.0  0.68101  0.91294  0.46525  1.0000
  H   H111      1.0  0.67686  0.82830  0.46281  1.0000
  H   H112      1.0  0.74215  0.94767  0.62259  1.0000
  H   H113      1.0  0.72077  0.90165  0.64542  1.0000
  C   C209      1.0  0.20411  0.58595  0.34273  1.0000
  C   C210      1.0  0.21574  0.61413  0.40981  1.0000
  C   C211      1.0  0.21354  0.66513  0.41005  1.0000
  C   C212      1.0  0.19925  0.68928  0.34410  1.0000
  N   N83       1.0  0.22405  0.68953  0.47948  1.0000
  C   C213      1.0  0.23632  0.66804  0.54796  1.0000
  C   C214      1.0  0.23777  0.61789  0.54949  1.0000
  N   N84       1.0  0.22766  0.59312  0.48010  1.0000
  H   H114      1.0  0.24358  0.68812  0.59889  1.0000
  O   O18       1.0  0.24901  0.59444  0.61896  1.0000
  H   H115      1.0  0.21931  0.55039  0.65564  1.0000
  C   C215      1.0  0.80612  0.41893  0.33633  1.0000
  C   C216      1.0  0.79468  0.39106  0.40429  1.0000
  C   C217      1.0  0.79700  0.34010  0.40538  1.0000
  C   C218      1.0  0.81117  0.31577  0.33933  1.0000
  N   N85       1.0  0.78669  0.31597  0.47557  1.0000
  C   C219      1.0  0.77454  0.33771  0.54405  1.0000
  C   C220      1.0  0.77295  0.38786  0.54466  1.0000
  N   N86       1.0  0.78286  0.41234  0.47452  1.0000
  H   H116      1.0  0.76738  0.31785  0.59547  1.0000
  O   O19       1.0  0.76169  0.41157  0.61378  1.0000
  H   H117      1.0  0.79117  0.45667  0.64835  1.0000
  C   C221      1.0  0.24493  0.38792  0.41116  1.0000
  C   C222      1.0  0.26404  0.35374  0.40702  1.0000
  H   H118      1.0  0.26469  0.32773  0.45545  1.0000
  H   H119      1.0  0.23223  0.38503  0.46185  1.0000
  C   C223      1.0  0.29770  0.39058  0.65579  1.0000
  H   H120      1.0  0.30996  0.39134  0.59768  1.0000
  H   H121      1.0  0.27942  0.40182  0.63322  1.0000
  C   C224      1.0  0.76559  0.61588  0.40975  1.0000
  C   C225      1.0  0.74657  0.65026  0.40750  1.0000
  H   H122      1.0  0.74594  0.67549  0.45738  1.0000
  H   H123      1.0  0.77830  0.61782  0.46058  1.0000
  C   C226      1.0  0.71268  0.62045  0.65416  1.0000
  H   H124      1.0  0.70032  0.62068  0.59629  1.0000
  H   H125      1.0  0.73092  0.60954  0.63058  1.0000
  C   C227      1.0  0.22843  0.85523  0.34919  1.0000
  C   C228      1.0  0.23055  0.89192  0.41492  1.0000
  C   C229      1.0  0.24972  0.92693  0.40984  1.0000
  C   C230      1.0  0.26746  0.92586  0.33976  1.0000
  N   N87       1.0  0.25145  0.95956  0.47754  1.0000
  C   C231      1.0  0.23611  0.96032  0.54949  1.0000
  C   C232      1.0  0.21788  0.92487  0.55667  1.0000
  N   N88       1.0  0.21567  0.89255  0.48883  1.0000
  H   H126      1.0  0.23854  0.98507  0.59922  1.0000
  O   O20       1.0  0.20320  0.92224  0.63120  1.0000
  C   C233      1.0  0.78217  0.14999  0.34904  1.0000
  C   C234      1.0  0.78014  0.11445  0.41694  1.0000
  C   C235      1.0  0.76106  0.07924  0.41380  1.0000
  C   C236      1.0  0.74341  0.07904  0.34342  1.0000
  N   N89       1.0  0.75936  0.04771  0.48334  1.0000
  C   C237      1.0  0.77466  0.04825  0.55540  1.0000
  C   C238      1.0  0.79286  0.08387  0.56050  1.0000
  N   N90       1.0  0.79503  0.11510  0.49084  1.0000
  H   H127      1.0  0.77230  0.02423  0.60643  1.0000
  O   O21       1.0  0.80761  0.08768  0.63466  1.0000
  C   C239      1.0  0.11464  0.43850  0.43020  1.0000
  C   C240      1.0  0.13879  0.45664  0.42683  1.0000
  H   H128      1.0  0.14430  0.48014  0.47574  1.0000
  H   H129      1.0  0.10329  0.44987  0.48097  1.0000
  H   H130      1.0  0.17842  0.39283  0.61850  1.0000
  H   H131      1.0  0.14760  0.40681  0.64630  1.0000
  C   C241      1.0  0.89575  0.56496  0.41853  1.0000
  C   C242      1.0  0.87147  0.54758  0.41597  1.0000
  H   H132      1.0  0.86585  0.52447  0.46536  1.0000
  H   H133      1.0  0.90704  0.55354  0.46944  1.0000
  C   C243      1.0  0.84337  0.60225  0.66338  1.0000
  H   H134      1.0  0.83106  0.61262  0.60873  1.0000
  H   H135      1.0  0.86179  0.59718  0.63516  1.0000
  C   C244      1.0  0.35559  0.94354  0.33125  1.0000
  C   C245      1.0  0.36426  0.91194  0.39883  1.0000
  C   C246      1.0  0.38871  0.89337  0.39518  1.0000
  C   C247      1.0  0.40480  0.90632  0.32403  1.0000
  N   N91       1.0  0.39653  0.86564  0.46500  1.0000
  C   C248      1.0  0.38229  0.85481  0.53718  1.0000
  C   C249      1.0  0.35840  0.87405  0.54208  1.0000
  N   N92       1.0  0.35033  0.90144  0.47256  1.0000
  H   H136      1.0  0.38916  0.83411  0.58795  1.0000
  O   O22       1.0  0.34350  0.86532  0.61440  1.0000
  H   H137      1.0  0.33816  0.93676  0.65341  1.0000
  C   C250      1.0  0.65538  0.06077  0.34208  1.0000
  C   C251      1.0  0.64662  0.09199  0.41010  1.0000
  C   C252      1.0  0.62200  0.10976  0.40724  1.0000
  C   C253      1.0  0.60591  0.09630  0.33648  1.0000
  N   N93       1.0  0.61408  0.13726  0.47720  1.0000
  C   C254      1.0  0.62841  0.14860  0.54889  1.0000
  C   C255      1.0  0.65249  0.13020  0.55300  1.0000
  N   N94       1.0  0.66064  0.10302  0.48329  1.0000
  H   H138      1.0  0.62149  0.16916  0.59978  1.0000
  O   O23       1.0  0.66751  0.13965  0.62463  1.0000
  H   H139      1.0  0.67393  0.06850  0.66337  1.0000
  C   C256      1.0  0.98746  0.53831  0.35706  1.0000
  C   C257      1.0  0.00588  0.53636  0.42442  1.0000
  C   C258      1.0  0.02356  0.49894  0.42407  1.0000
  C   C259      1.0  0.02271  0.46327  0.35644  1.0000
  N   N95       1.0  0.04036  0.49776  0.49228  1.0000
  C   C260      1.0  0.04097  0.53017  0.56015  1.0000
  C   C261      1.0  0.02312  0.56656  0.56176  1.0000
  N   N96       1.0  0.00653  0.56843  0.49343  1.0000
  H   H140      1.0  0.05389  0.52737  0.60986  1.0000
  O   O24       1.0  0.02259  0.59971  0.62929  1.0000
  C   C262      1.0  0.50696  0.96477  0.39641  1.0000
  C   C263      1.0  0.52434  0.00189  0.39635  1.0000
  H   H141      1.0  0.53742  0.00275  0.44607  1.0000
  H   H142      1.0  0.50804  0.93941  0.44599  1.0000
  C   C264      1.0  0.50632  0.08947  0.65791  1.0000
  H   H143      1.0  0.50543  0.11732  0.60668  1.0000
  H   H144      1.0  0.50284  0.05513  0.62514  1.0000
