data_image0
_chemical_formula_structural       C2OCH3CHC5H3CHNC2OCH2C2NC3NOCH3C3NOCH3NCNHCHCNHCNH2CNH2C6H3C6H3C6H3C6H3C6H3NCNHCNHC2NC3NOCH3C2NOCH3C3NOCH3C3NOCH2C3NOCH3
_chemical_formula_sum              "C81 O9 H54 N18"
_cell_length_a       30.3465
_cell_length_b       30.3466
_cell_length_c       14.7618
_cell_angle_alpha    90
_cell_angle_beta     90
_cell_angle_gamma    120

_space_group_name_H-M_alt    "P 1"
_space_group_IT_number       1

loop_
  _space_group_symop_operation_xyz
  'x, y, z'

loop_
  _atom_site_type_symbol
  _atom_site_label
  _atom_site_symmetry_multiplicity
  _atom_site_fract_x
  _atom_site_fract_y
  _atom_site_fract_z
  _atom_site_occupancy
  C   C1        1.0  0.03351  0.48895  0.26035  1.0000
  C   C2        1.0  0.06311  0.53629  0.30571  1.0000
  O   O1        1.0  0.05495  0.46514  0.21478  1.0000
  C   C3        1.0  0.06456  0.47947  0.12095  1.0000
  H   H1        1.0  0.02929  0.46925  0.08466  1.0000
  H   H2        1.0  0.08159  0.45883  0.09020  1.0000
  H   H3        1.0  0.09116  0.52014  0.11319  1.0000
  C   C4        1.0  0.03381  0.55515  0.34795  1.0000
  H   H4        1.0  0.05082  0.58799  0.38489  1.0000
  C   C5        1.0  0.19640  0.56026  0.35773  1.0000
  C   C6        1.0  0.19824  0.64305  0.34985  1.0000
  C   C7        1.0  0.14721  0.61697  0.31928  1.0000
  C   C8        1.0  0.11817  0.56266  0.31519  1.0000
  C   C9        1.0  0.14487  0.53557  0.32955  1.0000
  H   H5        1.0  0.12996  0.63794  0.30683  1.0000
  H   H6        1.0  0.12558  0.49671  0.32877  1.0000
  H   H7        1.0  0.18738  0.50378  0.57501  1.0000
  C   C10       1.0  0.24087  0.51711  0.29826  1.0000
  H   H8        1.0  0.22170  0.50947  0.23814  1.0000
  N   N1        1.0  0.24445  0.72867  0.28994  1.0000
  C   C11       1.0  0.22116  0.61354  0.36937  1.0000
  C   C12       1.0  0.22578  0.53619  0.37271  1.0000
  O   O2        1.0  0.24969  0.57081  0.52526  1.0000
  C   C13       1.0  0.22484  0.53429  0.59637  1.0000
  H   H9        1.0  0.21954  0.55385  0.65367  1.0000
  H   H10       1.0  0.24792  0.51800  0.61906  1.0000
  C   C14       1.0  0.22872  0.69634  0.36223  1.0000
  C   C15       1.0  0.95441  0.48344  0.30308  1.0000
  N   N2        1.0  0.98155  0.46443  0.26197  1.0000
  C   C16       1.0  0.52871  0.55130  0.27080  1.0000
  C   C17       1.0  0.48074  0.53392  0.31374  1.0000
  C   C18       1.0  0.53343  0.47769  0.31718  1.0000
  N   N3        1.0  0.55317  0.52380  0.27551  1.0000
  O   O3        1.0  0.55333  0.59645  0.22507  1.0000
  C   C19       1.0  0.54056  0.59154  0.13044  1.0000
  H   H11       1.0  0.55130  0.56637  0.09603  1.0000
  H   H12       1.0  0.56175  0.62915  0.09957  1.0000
  H   H13       1.0  0.50004  0.57751  0.12030  1.0000
  C   C20       1.0  0.52940  0.98509  0.26539  1.0000
  C   C21       1.0  0.48231  0.95478  0.31111  1.0000
  C   C22       1.0  0.53447  0.06360  0.31145  1.0000
  N   N4        1.0  0.55366  0.03707  0.26858  1.0000
  O   O4        1.0  0.55313  0.96424  0.21787  1.0000
  C   C23       1.0  0.53868  0.95592  0.12397  1.0000
  H   H14       1.0  0.49799  0.92949  0.11600  1.0000
  H   H15       1.0  0.55923  0.93926  0.09151  1.0000
  H   H16       1.0  0.54892  0.99169  0.08944  1.0000
  N   N5        1.0  0.28802  0.52146  0.29687  1.0000
  C   C24       1.0  0.50069  0.73110  0.30192  1.0000
  N   N6        1.0  0.49834  0.77501  0.30032  1.0000
  H   H17       1.0  0.50798  0.71901  0.24207  1.0000
  C   C25       1.0  0.28812  0.77514  0.29113  1.0000
  H   H18       1.0  0.30024  0.79417  0.23100  1.0000
  C   C26       1.0  0.77317  0.49891  0.29388  1.0000
  N   N7        1.0  0.72628  0.49506  0.29877  1.0000
  H   H19       1.0  0.79102  0.50770  0.23236  1.0000
  C   C27       1.0  0.51416  0.28383  0.32147  1.0000
  N   N8        1.0  0.51774  0.24063  0.31765  1.0000
  H   H20       1.0  0.50487  0.29524  0.26291  1.0000
  H   H21       1.0  0.56096  0.34243  0.00765  1.0000
  C   C28       1.0  0.72729  0.24257  0.27822  1.0000
  N   N9        1.0  0.77102  0.28884  0.27333  1.0000
  H   H22       1.0  0.71246  0.22354  0.21883  1.0000
  H   H23       1.0  0.25920  0.63230  0.38516  1.0000
  C   C29       1.0  0.45675  0.64362  0.36340  1.0000
  C   C30       1.0  0.40354  0.61498  0.37632  1.0000
  C   C31       1.0  0.37401  0.56257  0.35640  1.0000
  C   C32       1.0  0.40007  0.53771  0.32519  1.0000
  C   C33       1.0  0.45441  0.56286  0.32140  1.0000
  C   C34       1.0  0.48139  0.61674  0.33489  1.0000
  H   H24       1.0  0.37908  0.49946  0.31302  1.0000
  H   H25       1.0  0.52023  0.63638  0.33364  1.0000
  H   H26       1.0  0.38476  0.63418  0.39243  1.0000
  C   C35       1.0  0.37562  0.81935  0.35346  1.0000
  C   C36       1.0  0.40511  0.79607  0.37031  1.0000
  C   C37       1.0  0.45829  0.82079  0.35737  1.0000
  C   C38       1.0  0.48308  0.87259  0.33071  1.0000
  C   C39       1.0  0.45606  0.89957  0.31886  1.0000
  C   C40       1.0  0.40178  0.87058  0.32381  1.0000
  H   H27       1.0  0.52193  0.89181  0.32938  1.0000
  H   H28       1.0  0.38086  0.88806  0.31308  1.0000
  H   H29       1.0  0.38635  0.75792  0.38516  1.0000
  C   C41       1.0  0.81968  0.45579  0.34412  1.0000
  C   C42       1.0  0.79505  0.40219  0.34983  1.0000
  C   C43       1.0  0.81972  0.37405  0.33236  1.0000
  C   C44       1.0  0.87203  0.40156  0.30930  1.0000
  C   C45       1.0  0.89974  0.45585  0.30862  1.0000
  C   C46       1.0  0.87214  0.48200  0.32230  1.0000
  H   H30       1.0  0.89100  0.38180  0.30206  1.0000
  H   H31       1.0  0.89099  0.52093  0.32206  1.0000
  H   H32       1.0  0.75673  0.38254  0.36334  1.0000
  C   C47       1.0  0.55959  0.37195  0.37990  1.0000
  C   C48       1.0  0.61282  0.40171  0.39202  1.0000
  C   C49       1.0  0.64197  0.45347  0.36653  1.0000
  C   C50       1.0  0.61521  0.47693  0.33150  1.0000
  C   C51       1.0  0.56094  0.45076  0.32892  1.0000
  C   C52       1.0  0.53447  0.39736  0.34658  1.0000
  H   H33       1.0  0.63542  0.51503  0.31749  1.0000
  H   H34       1.0  0.49567  0.37701  0.34105  1.0000
  H   H35       1.0  0.63202  0.38310  0.40906  1.0000
  C   C53       1.0  0.64308  0.19742  0.35302  1.0000
  C   C54       1.0  0.61413  0.22045  0.37716  1.0000
  C   C55       1.0  0.56073  0.19618  0.36757  1.0000
  C   C56       1.0  0.53518  0.14502  0.33780  1.0000
  C   C57       1.0  0.56174  0.11815  0.32060  1.0000
  C   C58       1.0  0.61601  0.14645  0.32142  1.0000
  H   H36       1.0  0.49628  0.12620  0.33476  1.0000
  H   H37       1.0  0.63615  0.12837  0.30840  1.0000
  H   H38       1.0  0.63331  0.25840  0.39347  1.0000
  N   N10       1.0  0.98209  0.52897  0.34575  1.0000
  C   C59       1.0  0.46116  0.48581  0.35654  1.0000
  N   N11       1.0  0.48734  0.46026  0.35750  1.0000
  H   H39       1.0  0.42797  0.47022  0.39242  1.0000
  C   C60       1.0  0.46338  0.98346  0.35542  1.0000
  N   N12       1.0  0.48924  0.03518  0.35467  1.0000
  H   H40       1.0  0.43078  0.96599  0.39297  1.0000
  C   C61       1.0  0.25801  0.54986  0.44970  1.0000
  C   C62       1.0  0.32065  0.53961  0.36859  1.0000
  N   N13       1.0  0.30425  0.55382  0.44264  1.0000
  C   C63       1.0  0.46793  0.71684  0.45323  1.0000
  C   C64       1.0  0.48079  0.69727  0.37659  1.0000
  C   C65       1.0  0.48207  0.79132  0.37222  1.0000
  N   N14       1.0  0.46639  0.76050  0.44618  1.0000
  O   O5        1.0  0.44611  0.68820  0.52908  1.0000
  C   C66       1.0  0.48282  0.69567  0.59760  1.0000
  H   H41       1.0  0.50992  0.68456  0.57346  1.0000
  H   H42       1.0  0.46248  0.67166  0.65538  1.0000
  H   H43       1.0  0.50336  0.73518  0.62068  1.0000
  C   C67       1.0  0.30251  0.75746  0.44327  1.0000
  C   C68       1.0  0.32202  0.78907  0.36573  1.0000
  N   N15       1.0  0.25913  0.71217  0.43657  1.0000
  O   O6        1.0  0.33106  0.76521  0.51964  1.0000
  C   C69       1.0  0.32010  0.79116  0.58970  1.0000
  H   H44       1.0  0.32832  0.82890  0.56753  1.0000
  H   H45       1.0  0.34444  0.79593  0.64761  1.0000
  H   H46       1.0  0.28053  0.76913  0.61184  1.0000
  C   C70       1.0  0.76039  0.46465  0.44402  1.0000
  C   C71       1.0  0.79045  0.47941  0.36424  1.0000
  C   C72       1.0  0.69570  0.47603  0.37297  1.0000
  N   N16       1.0  0.71421  0.46111  0.44315  1.0000
  O   O7        1.0  0.77032  0.44227  0.51561  1.0000
  C   C73       1.0  0.79602  0.47719  0.58852  1.0000
  H   H47       1.0  0.83291  0.50854  0.56683  1.0000
  H   H48       1.0  0.80262  0.45654  0.64235  1.0000
  H   H49       1.0  0.77294  0.49239  0.61617  1.0000
  C   C74       1.0  0.55192  0.29963  0.46910  1.0000
  C   C75       1.0  0.53673  0.31847  0.39448  1.0000
  C   C76       1.0  0.53744  0.22566  0.38627  1.0000
  N   N17       1.0  0.55455  0.25670  0.45974  1.0000
  O   O8        1.0  0.57484  0.32860  0.54413  1.0000
  C   C77       1.0  0.53987  0.31788  0.61758  1.0000
  H   H50       1.0  0.50977  0.32599  0.59893  1.0000
  H   H51       1.0  0.52294  0.27838  0.63993  1.0000
  C   C78       1.0  0.72007  0.26023  0.43404  1.0000
  C   C79       1.0  0.69707  0.22824  0.35782  1.0000
  C   C80       1.0  0.79087  0.32072  0.34574  1.0000
  N   N18       1.0  0.76349  0.30534  0.42371  1.0000
  O   O9        1.0  0.69514  0.25282  0.51476  1.0000
  C   C81       1.0  0.70779  0.22547  0.57929  1.0000
  H   H52       1.0  0.69725  0.18751  0.55447  1.0000
  H   H53       1.0  0.68635  0.22113  0.64120  1.0000
  H   H54       1.0  0.74827  0.24624  0.59600  1.0000
