data_image0
_chemical_formula_structural       C3NC3NC5NC5NC36H26C4H4C3OHOHNC3OHOHNC16H16C3O2H2NC3O2H2N
_chemical_formula_sum              "C84 N8 H54 O8"
_cell_length_a       34.4536
_cell_length_b       34.4534
_cell_length_c       14.7067
_cell_angle_alpha    90
_cell_angle_beta     90
_cell_angle_gamma    90.1686

_space_group_name_H-M_alt    "P 1"
_space_group_IT_number       1

loop_
  _space_group_symop_operation_xyz
  'x, y, z'

loop_
  _atom_site_type_symbol
  _atom_site_label
  _atom_site_symmetry_multiplicity
  _atom_site_fract_x
  _atom_site_fract_y
  _atom_site_fract_z
  _atom_site_occupancy
  C   C1        1.0  0.11162  0.08316  0.33574  1.0000
  C   C2        1.0  0.08312  0.11132  0.33516  1.0000
  C   C3        1.0  0.04690  0.09295  0.33610  1.0000
  N   N1        1.0  0.05501  0.05434  0.33689  1.0000
  C   C4        1.0  0.09372  0.04670  0.33621  1.0000
  C   C5        1.0  0.11380  0.01048  0.33606  1.0000
  C   C6        1.0  0.09500  0.97359  0.33622  1.0000
  N   N2        1.0  0.05644  0.96565  0.33701  1.0000
  C   C7        1.0  0.04893  0.92701  0.33593  1.0000
  C   C8        1.0  0.08519  0.90898  0.33466  1.0000
  C   C9        1.0  0.11343  0.93754  0.33448  1.0000
  C   C10       1.0  0.01226  0.90777  0.33605  1.0000
  C   C11       1.0  0.97581  0.92737  0.33644  1.0000
  N   N3        1.0  0.96771  0.96598  0.33644  1.0000
  C   C12       1.0  0.92900  0.97359  0.33575  1.0000
  C   C13       1.0  0.91110  0.93713  0.33604  1.0000
  C   C14       1.0  0.93961  0.90898  0.33606  1.0000
  C   C15       1.0  0.90892  0.00980  0.33517  1.0000
  C   C16       1.0  0.92772  0.04669  0.33534  1.0000
  N   N4        1.0  0.96628  0.05465  0.33606  1.0000
  C   C17       1.0  0.97378  0.09329  0.33514  1.0000
  C   C18       1.0  0.93749  0.11129  0.33417  1.0000
  C   C19       1.0  0.90926  0.08272  0.33379  1.0000
  C   C20       1.0  0.01045  0.11256  0.33525  1.0000
  C   C21       1.0  0.01048  0.15430  0.33238  1.0000
  C   C22       1.0  0.00371  0.17419  0.24989  1.0000
  C   C23       1.0  0.00214  0.21509  0.24730  1.0000
  C   C24       1.0  0.00738  0.23794  0.32670  1.0000
  C   C25       1.0  0.00392  0.27968  0.32410  1.0000
  C   C26       1.0  0.99594  0.36339  0.31715  1.0000
  C   C27       1.0  0.97071  0.33841  0.26825  1.0000
  C   C28       1.0  0.97459  0.29773  0.27160  1.0000
  C   C29       1.0  0.86719  0.00912  0.33226  1.0000
  C   C30       1.0  0.84740  0.00191  0.24979  1.0000
  C   C31       1.0  0.80651  0.00029  0.24690  1.0000
  C   C32       1.0  0.78355  0.00596  0.32593  1.0000
  C   C33       1.0  0.74178  0.00272  0.32293  1.0000
  C   C34       1.0  0.72349  0.97334  0.27075  1.0000
  C   C35       1.0  0.68277  0.96975  0.26678  1.0000
  C   C36       1.0  0.65800  0.99535  0.31481  1.0000
  C   C37       1.0  0.01216  0.86606  0.33335  1.0000
  C   C38       1.0  0.01397  0.78238  0.32716  1.0000
  C   C39       1.0  0.01747  0.80523  0.24721  1.0000
  C   C40       1.0  0.01657  0.84614  0.25005  1.0000
  C   C41       1.0  0.01657  0.74057  0.32391  1.0000
  C   C42       1.0  0.04366  0.72200  0.26607  1.0000
  C   C43       1.0  0.04659  0.68126  0.26173  1.0000
  C   C44       1.0  0.02263  0.65670  0.31508  1.0000
  C   C45       1.0  0.15553  0.01111  0.33334  1.0000
  C   C46       1.0  0.17542  0.01802  0.25086  1.0000
  C   C47       1.0  0.21633  0.01934  0.24807  1.0000
  C   C48       1.0  0.23921  0.01367  0.32722  1.0000
  C   C49       1.0  0.28101  0.01654  0.32424  1.0000
  C   C50       1.0  0.36486  0.02317  0.31600  1.0000
  C   C51       1.0  0.34030  0.04884  0.26759  1.0000
  C   C52       1.0  0.29956  0.04561  0.27159  1.0000
  H   H1        1.0  0.35191  0.07053  0.22838  1.0000
  H   H2        1.0  0.28345  0.06548  0.23638  1.0000
  H   H3        1.0  0.22934  0.02417  0.18656  1.0000
  H   H4        1.0  0.16015  0.02236  0.19203  1.0000
  H   H5        1.0  0.14072  0.08895  0.33527  1.0000
  H   H6        1.0  0.08852  0.14049  0.33398  1.0000
  H   H7        1.0  0.03538  0.03448  0.33725  1.0000
  H   H8        1.0  0.98733  0.98584  0.33611  1.0000
  H   H9        1.0  0.14262  0.93236  0.33301  1.0000
  H   H10       1.0  0.09070  0.87985  0.33363  1.0000
  H   H11       1.0  0.01941  0.86138  0.19064  1.0000
  H   H12       1.0  0.02044  0.79220  0.18511  1.0000
  H   H13       1.0  0.93422  0.87979  0.33580  1.0000
  H   H14       1.0  0.88200  0.93133  0.33603  1.0000
  H   H15       1.0  0.93194  0.14041  0.33351  1.0000
  H   H16       1.0  0.88007  0.08789  0.33256  1.0000
  H   H17       1.0  0.86272  0.99750  0.19108  1.0000
  H   H18       1.0  0.79356  0.99521  0.18542  1.0000
  H   H19       1.0  0.67134  0.94786  0.22791  1.0000
  H   H20       1.0  0.73977  0.95353  0.23579  1.0000
  H   H21       1.0  0.95500  0.28129  0.23610  1.0000
  H   H22       1.0  0.94885  0.34966  0.22917  1.0000
  H   H23       1.0  0.99726  0.22811  0.18585  1.0000
  H   H24       1.0  0.99944  0.15894  0.19099  1.0000
  H   H25       1.0  0.06232  0.73808  0.22708  1.0000
  H   H26       1.0  0.06682  0.66966  0.21860  1.0000
  C   C53       1.0  0.99097  0.40376  0.31076  1.0000
  C   C54       1.0  0.61758  0.99073  0.30767  1.0000
  C   C55       1.0  0.02656  0.61625  0.30742  1.0000
  C   C56       1.0  0.40531  0.02744  0.30878  1.0000
  H   H27       1.0  0.96907  0.41346  0.27293  1.0000
  H   H28       1.0  0.41535  0.04868  0.26921  1.0000
  H   H29       1.0  0.04640  0.60625  0.26415  1.0000
  H   H30       1.0  0.60770  0.96943  0.26809  1.0000
  C   C57       1.0  0.01043  0.46843  0.34802  1.0000
  C   C58       1.0  0.00714  0.48972  0.26576  1.0000
  C   C59       1.0  0.00585  0.53084  0.26631  1.0000
  O   O1        1.0  0.99994  0.55014  0.18667  1.0000
  H   H31       1.0  0.02470  0.54954  0.15341  1.0000
  O   O2        1.0  0.00475  0.47106  0.18434  1.0000
  H   H32       1.0  0.03157  0.46509  0.16637  1.0000
  N   N5        1.0  0.01239  0.42943  0.35066  1.0000
  C   C60       1.0  0.55310  0.00965  0.34625  1.0000
  C   C61       1.0  0.53189  0.00884  0.26359  1.0000
  C   C62       1.0  0.49070  0.00840  0.26384  1.0000
  O   O3        1.0  0.47135  0.00606  0.18323  1.0000
  H   H33       1.0  0.47283  0.03196  0.15525  1.0000
  O   O4        1.0  0.55104  0.01081  0.18267  1.0000
  H   H34       1.0  0.54951  0.98478  0.15541  1.0000
  N   N6        1.0  0.59210  0.01161  0.34930  1.0000
  C   C63       1.0  0.01496  0.21770  0.40879  1.0000
  C   C64       1.0  0.01628  0.17674  0.41177  1.0000
  C   C65       1.0  0.02901  0.30464  0.37368  1.0000
  C   C66       1.0  0.02526  0.34549  0.37005  1.0000
  C   C67       1.0  0.80371  0.01385  0.40802  1.0000
  C   C68       1.0  0.84467  0.01526  0.41131  1.0000
  C   C69       1.0  0.67613  0.02470  0.36748  1.0000
  C   C70       1.0  0.71702  0.02816  0.37168  1.0000
  C   C71       1.0  0.00813  0.84369  0.41341  1.0000
  C   C72       1.0  0.00888  0.80271  0.41021  1.0000
  C   C73       1.0  0.99560  0.67509  0.37345  1.0000
  C   C74       1.0  0.99278  0.71601  0.37794  1.0000
  C   C75       1.0  0.17798  0.00497  0.41253  1.0000
  C   C76       1.0  0.21895  0.00608  0.40934  1.0000
  C   C77       1.0  0.30555  0.99103  0.37337  1.0000
  C   C78       1.0  0.34647  0.99413  0.36913  1.0000
  H   H35       1.0  0.36278  0.97471  0.40520  1.0000
  H   H36       1.0  0.29377  0.96915  0.41156  1.0000
  H   H37       1.0  0.23391  0.00245  0.46880  1.0000
  H   H38       1.0  0.16455  0.00001  0.47352  1.0000
  H   H39       1.0  0.00507  0.85717  0.47500  1.0000
  H   H40       1.0  0.00693  0.78781  0.47019  1.0000
  H   H41       1.0  0.85804  0.02039  0.47231  1.0000
  H   H42       1.0  0.78869  0.01749  0.46740  1.0000
  H   H43       1.0  0.72862  0.05025  0.40949  1.0000
  H   H44       1.0  0.65966  0.04408  0.40324  1.0000
  H   H45       1.0  0.02096  0.16329  0.47284  1.0000
  H   H46       1.0  0.01819  0.23264  0.46843  1.0000
  H   H47       1.0  0.04436  0.36211  0.40654  1.0000
  H   H48       1.0  0.05102  0.29322  0.41185  1.0000
  H   H49       1.0  0.97233  0.72777  0.42007  1.0000
  H   H50       1.0  0.97747  0.65878  0.41328  1.0000
  C   C79       1.0  0.00862  0.55186  0.34902  1.0000
  C   C80       1.0  0.01240  0.53062  0.43093  1.0000
  C   C81       1.0  0.01323  0.48949  0.43046  1.0000
  O   O5        1.0  0.01443  0.54969  0.51192  1.0000
  O   O6        1.0  0.01736  0.47024  0.51075  1.0000
  H   H51       1.0  0.04215  0.55461  0.52318  1.0000
  H   H52       1.0  0.99094  0.46520  0.53321  1.0000
  N   N7        1.0  0.00687  0.59085  0.35276  1.0000
  C   C82       1.0  0.46966  0.00808  0.34676  1.0000
  C   C83       1.0  0.49090  0.00864  0.42916  1.0000
  C   C84       1.0  0.53203  0.00947  0.42891  1.0000
  O   O7        1.0  0.47182  0.00775  0.51025  1.0000
  O   O8        1.0  0.55127  0.01080  0.50976  1.0000
  H   H53       1.0  0.46708  0.03497  0.52699  1.0000
  H   H54       1.0  0.55622  0.98368  0.52702  1.0000
  N   N8        1.0  0.43066  0.00632  0.35019  1.0000
