data_image0
_chemical_formula_structural       COHCOH3C11OH4C6O2H4C6O2H4NC2N2C2N2C2N2C2N2C2N2C2NC3HOCOC3HOC3OHC3HOC3OHC2NC2NC2NC2NC2NC2NC2NC2NC2NC2NC2NC2NC3OH4C6O2H4C6O2H4NC2N2C2N2C2N2C2N2C2N2C2NC3HOCOC3HOC3OHC3HOC3OHC2NC2NC2NC2NC2NC2NC2NC2NC2NC2NC2NC2NC6O2H3C6O2H4C6O2H4NC2N2C2N2C2N2C2N2C2N2C2NC3HOC3OHC3HOC3OHC3HOC3OHC2NC2NC2NC2NC2NC2NC2NC2NC2NC2NC2NC2NC6O2H3C6O2H4C6O2H4NC2N2C2N2C2N2C2N2C2N2C2NC3HOC3OHC3HOC3OHC3HOC3OHC2NC2NC2NC2NC2NC2NC2NC2NC2NC2NC2NC2N
_chemical_formula_sum              "C288 O48 H72 N96"
_cell_length_a       46.2023
_cell_length_b       46.2023
_cell_length_c       14.9512
_cell_angle_alpha    90
_cell_angle_beta     90
_cell_angle_gamma    120

_space_group_name_H-M_alt    "P 1"
_space_group_IT_number       1

loop_
  _space_group_symop_operation_xyz
  'x, y, z'

loop_
  _atom_site_type_symbol
  _atom_site_label
  _atom_site_symmetry_multiplicity
  _atom_site_fract_x
  _atom_site_fract_y
  _atom_site_fract_z
  _atom_site_occupancy
  C   C1        1.0  0.02054  0.26082  0.31844  1.0000
  O   O1        1.0  0.02859  0.31639  0.28009  1.0000
  H   H1        1.0  0.02783  0.21918  0.34291  1.0000
  C   C2        1.0  0.02054  0.76082  0.31844  1.0000
  O   O2        1.0  0.02859  0.81639  0.28009  1.0000
  H   H2        1.0  0.02783  0.71918  0.34291  1.0000
  H   H3        1.0  0.02475  0.31168  0.21567  1.0000
  H   H4        1.0  0.02475  0.81168  0.21567  1.0000
  C   C3        1.0  0.04049  0.29671  0.31190  1.0000
  C   C4        1.0  0.03930  0.24421  0.33274  1.0000
  C   C5        1.0  0.04049  0.79671  0.31190  1.0000
  C   C6        1.0  0.03929  0.74421  0.33274  1.0000
  C   C7        1.0  0.07482  0.31437  0.33571  1.0000
  C   C8        1.0  0.07429  0.26097  0.34281  1.0000
  C   C9        1.0  0.07482  0.81436  0.33571  1.0000
  C   C10       1.0  0.07429  0.76097  0.34281  1.0000
  C   C11       1.0  0.48429  0.24237  0.31877  1.0000
  C   C12       1.0  0.43007  0.18884  0.33727  1.0000
  C   C13       1.0  0.46435  0.20647  0.31287  1.0000
  O   O3        1.0  0.47621  0.18675  0.28104  1.0000
  H   H5        1.0  0.97988  0.19132  0.21653  1.0000
  H   H6        1.0  0.52475  0.31168  0.21567  1.0000
  H   H7        1.0  0.37100  0.18626  0.29436  1.0000
  H   H8        1.0  0.13385  0.31700  0.29202  1.0000
  C   C14       1.0  0.26164  0.24276  0.31871  1.0000
  C   C15       1.0  0.31516  0.24194  0.33531  1.0000
  C   C16       1.0  0.29753  0.25869  0.31208  1.0000
  C   C17       1.0  0.24320  0.26057  0.31905  1.0000
  C   C18       1.0  0.20730  0.24460  0.31273  1.0000
  C   C19       1.0  0.18963  0.26118  0.33731  1.0000
  O   O4        1.0  0.31724  0.29035  0.28082  1.0000
  O   O5        1.0  0.18764  0.21306  0.28054  1.0000
  H   H9        1.0  0.31262  0.28962  0.21639  1.0000
  H   H10       1.0  0.19234  0.21405  0.21610  1.0000
  H   H11       1.0  0.31772  0.18558  0.29033  1.0000
  H   H12       1.0  0.18698  0.31767  0.29511  1.0000
  C   C20       1.0  0.26144  0.01980  0.31873  1.0000
  C   C21       1.0  0.26206  0.07399  0.33690  1.0000
  C   C22       1.0  0.24548  0.03973  0.31235  1.0000
  C   C23       1.0  0.24365  0.48355  0.31869  1.0000
  C   C24       1.0  0.25961  0.46361  0.31256  1.0000
  C   C25       1.0  0.24293  0.42929  0.33653  1.0000
  O   O6        1.0  0.21395  0.02785  0.28016  1.0000
  O   O7        1.0  0.29122  0.47551  0.28091  1.0000
  H   H13       1.0  0.21494  0.52412  0.21573  1.0000
  H   H14       1.0  0.29037  0.97927  0.21644  1.0000
  H   H15       1.0  0.31858  0.13313  0.29474  1.0000
  H   H16       1.0  0.18647  0.37022  0.29332  1.0000
  N   N1        1.0  0.13689  0.24104  0.27050  1.0000
  C   C26       1.0  0.10635  0.23870  0.26636  1.0000
  C   C27       1.0  0.09470  0.23814  0.18668  1.0000
  N   N2        1.0  0.08446  0.23785  0.11650  1.0000
  N   N3        1.0  0.26312  0.39657  0.27054  1.0000
  C   C28       1.0  0.26543  0.36833  0.26718  1.0000
  C   C29       1.0  0.26594  0.35708  0.18767  1.0000
  N   N4        1.0  0.26618  0.34701  0.11763  1.0000
  N   N5        1.0  0.10753  0.36744  0.26935  1.0000
  C   C30       1.0  0.13576  0.39800  0.26613  1.0000
  C   C31       1.0  0.14690  0.41004  0.18678  1.0000
  N   N6        1.0  0.15690  0.42063  0.11689  1.0000
  N   N7        1.0  0.36834  0.26245  0.26938  1.0000
  C   C32       1.0  0.39896  0.26491  0.26626  1.0000
  C   C33       1.0  0.41105  0.26577  0.18703  1.0000
  N   N8        1.0  0.42166  0.26632  0.11721  1.0000
  N   N9        1.0  0.24188  0.10649  0.26985  1.0000
  C   C34       1.0  0.23949  0.13467  0.26553  1.0000
  C   C35       1.0  0.23895  0.14573  0.18582  1.0000
  N   N10       1.0  0.23868  0.15566  0.11560  1.0000
  N   N11       1.0  0.39746  0.13596  0.27114  1.0000
  C   C36       1.0  0.36926  0.10539  0.26734  1.0000
  C   C37       1.0  0.35812  0.09371  0.18771  1.0000
  N   N12       1.0  0.34812  0.08346  0.11757  1.0000
  C   C38       1.0  0.46554  0.25899  0.33287  1.0000
  C   C39       1.0  0.43059  0.24224  0.34412  1.0000
  C   C40       1.0  0.41328  0.20707  0.34927  1.0000
  H   H17       1.0  0.47700  0.28406  0.34200  1.0000
  O   O8        1.0  0.37926  0.19033  0.35630  1.0000
  C   C41       1.0  0.09163  0.29614  0.34733  1.0000
  O   O9        1.0  0.12566  0.31285  0.35404  1.0000
  C   C42       1.0  0.24501  0.20739  0.33284  1.0000
  C   C43       1.0  0.26174  0.18910  0.34224  1.0000
  C   C44       1.0  0.29691  0.20687  0.34634  1.0000
  H   H18       1.0  0.21998  0.19385  0.34294  1.0000
  O   O10       1.0  0.31361  0.18952  0.35249  1.0000
  C   C45       1.0  0.20783  0.29619  0.34965  1.0000
  C   C46       1.0  0.24299  0.31409  0.34437  1.0000
  C   C47       1.0  0.25978  0.29592  0.33337  1.0000
  O   O11       1.0  0.19108  0.31345  0.35698  1.0000
  H   H19       1.0  0.28485  0.30953  0.34269  1.0000
  C   C48       1.0  0.29680  0.03856  0.33309  1.0000
  C   C49       1.0  0.31496  0.07352  0.34420  1.0000
  C   C50       1.0  0.29707  0.09079  0.34931  1.0000
  H   H20       1.0  0.31040  0.02711  0.34276  1.0000
  O   O12       1.0  0.31433  0.12480  0.35662  1.0000
  C   C51       1.0  0.20790  0.41249  0.34831  1.0000
  C   C52       1.0  0.19006  0.42981  0.34331  1.0000
  C   C53       1.0  0.20827  0.46478  0.33276  1.0000
  O   O13       1.0  0.19062  0.37847  0.35528  1.0000
  H   H21       1.0  0.19468  0.47625  0.34218  1.0000
  C   C54       1.0  0.15438  0.24482  0.34714  1.0000
  C   C55       1.0  0.09271  0.24402  0.34585  1.0000
  N   N13       1.0  0.11083  0.24891  0.42163  1.0000
  C   C56       1.0  0.13947  0.24770  0.42727  1.0000
  C   C57       1.0  0.15408  0.25440  0.50509  1.0000
  N   N14       1.0  0.16706  0.26040  0.57357  1.0000
  C   C58       1.0  0.25926  0.41038  0.34682  1.0000
  C   C59       1.0  0.25988  0.34946  0.34697  1.0000
  N   N15       1.0  0.25496  0.36287  0.42239  1.0000
  C   C60       1.0  0.25620  0.39273  0.42735  1.0000
  C   C61       1.0  0.24961  0.40094  0.50492  1.0000
  N   N16       1.0  0.24372  0.40816  0.57319  1.0000
  C   C62       1.0  0.09380  0.34962  0.34543  1.0000
  C   C63       1.0  0.15469  0.41138  0.34579  1.0000
  N   N17       1.0  0.14129  0.39290  0.42103  1.0000
  C   C64       1.0  0.11148  0.36421  0.42599  1.0000
  C   C65       1.0  0.10336  0.34944  0.50361  1.0000
  N   N18       1.0  0.09621  0.33633  0.57191  1.0000
  C   C66       1.0  0.35039  0.25819  0.34533  1.0000
  C   C67       1.0  0.41216  0.25920  0.34595  1.0000
  N   N19       1.0  0.39360  0.25391  0.42115  1.0000
  C   C68       1.0  0.36488  0.25497  0.42593  1.0000
  C   C69       1.0  0.34998  0.24806  0.50339  1.0000
  N   N20       1.0  0.33677  0.24188  0.57156  1.0000
  C   C70       1.0  0.24571  0.09289  0.34660  1.0000
  C   C71       1.0  0.24472  0.15373  0.34474  1.0000
  N   N21       1.0  0.24971  0.14056  0.42058  1.0000
  C   C72       1.0  0.24860  0.11077  0.42655  1.0000
  C   C73       1.0  0.25538  0.10299  0.50445  1.0000
  N   N22       1.0  0.26144  0.09613  0.57301  1.0000
  C   C74       1.0  0.41118  0.15361  0.34757  1.0000
  C   C75       1.0  0.35034  0.09199  0.34695  1.0000
  N   N23       1.0  0.36354  0.11021  0.42261  1.0000
  C   C76       1.0  0.39337  0.13888  0.42782  1.0000
  C   C77       1.0  0.40144  0.15361  0.50547  1.0000
  N   N24       1.0  0.40855  0.16668  0.57382  1.0000
  C   C78       1.0  0.48429  0.74237  0.31877  1.0000
  C   C79       1.0  0.43007  0.68884  0.33727  1.0000
  C   C80       1.0  0.46435  0.70647  0.31287  1.0000
  O   O14       1.0  0.47621  0.68675  0.28104  1.0000
  H   H22       1.0  0.97988  0.69132  0.21653  1.0000
  H   H23       1.0  0.52475  0.81168  0.21567  1.0000
  H   H24       1.0  0.37100  0.68626  0.29436  1.0000
  H   H25       1.0  0.13385  0.81701  0.29202  1.0000
  C   C81       1.0  0.26164  0.74276  0.31871  1.0000
  C   C82       1.0  0.31516  0.74193  0.33531  1.0000
  C   C83       1.0  0.29753  0.75869  0.31208  1.0000
  C   C84       1.0  0.24319  0.76057  0.31905  1.0000
  C   C85       1.0  0.20730  0.74460  0.31273  1.0000
  C   C86       1.0  0.18963  0.76118  0.33731  1.0000
  O   O15       1.0  0.31724  0.79035  0.28082  1.0000
  O   O16       1.0  0.18764  0.71306  0.28054  1.0000
  H   H26       1.0  0.31262  0.78962  0.21639  1.0000
  H   H27       1.0  0.19234  0.71405  0.21610  1.0000
  H   H28       1.0  0.31772  0.68558  0.29033  1.0000
  H   H29       1.0  0.18698  0.81768  0.29511  1.0000
  C   C87       1.0  0.26145  0.51980  0.31873  1.0000
  C   C88       1.0  0.26206  0.57399  0.33690  1.0000
  C   C89       1.0  0.24548  0.53973  0.31235  1.0000
  C   C90       1.0  0.24365  0.98355  0.31869  1.0000
  C   C91       1.0  0.25961  0.96361  0.31256  1.0000
  C   C92       1.0  0.24293  0.92929  0.33653  1.0000
  O   O17       1.0  0.21395  0.52785  0.28016  1.0000
  O   O18       1.0  0.29122  0.97551  0.28091  1.0000
  H   H30       1.0  0.21494  0.02412  0.21573  1.0000
  H   H31       1.0  0.29037  0.47927  0.21644  1.0000
  H   H32       1.0  0.31858  0.63313  0.29474  1.0000
  H   H33       1.0  0.18647  0.87022  0.29332  1.0000
  N   N25       1.0  0.13690  0.74104  0.27050  1.0000
  C   C93       1.0  0.10635  0.73870  0.26636  1.0000
  C   C94       1.0  0.09470  0.73814  0.18668  1.0000
  N   N26       1.0  0.08446  0.73785  0.11650  1.0000
  N   N27       1.0  0.26312  0.89657  0.27054  1.0000
  C   C95       1.0  0.26543  0.86833  0.26718  1.0000
  C   C96       1.0  0.26594  0.85708  0.18767  1.0000
  N   N28       1.0  0.26618  0.84701  0.11763  1.0000
  N   N29       1.0  0.10753  0.86745  0.26935  1.0000
  C   C97       1.0  0.13576  0.89800  0.26613  1.0000
  C   C98       1.0  0.14690  0.91004  0.18678  1.0000
  N   N30       1.0  0.15690  0.92062  0.11689  1.0000
  N   N31       1.0  0.36834  0.76245  0.26938  1.0000
  C   C99       1.0  0.39896  0.76491  0.26626  1.0000
  C   C100      1.0  0.41105  0.76577  0.18703  1.0000
  N   N32       1.0  0.42166  0.76632  0.11721  1.0000
  N   N33       1.0  0.24188  0.60649  0.26985  1.0000
  C   C101      1.0  0.23949  0.63467  0.26553  1.0000
  C   C102      1.0  0.23895  0.64573  0.18582  1.0000
  N   N34       1.0  0.23868  0.65567  0.11560  1.0000
  N   N35       1.0  0.39746  0.63596  0.27114  1.0000
  C   C103      1.0  0.36926  0.60539  0.26734  1.0000
  C   C104      1.0  0.35812  0.59371  0.18771  1.0000
  N   N36       1.0  0.34812  0.58346  0.11757  1.0000
  C   C105      1.0  0.46554  0.75899  0.33287  1.0000
  C   C106      1.0  0.43059  0.74224  0.34413  1.0000
  C   C107      1.0  0.41328  0.70707  0.34927  1.0000
  H   H34       1.0  0.47700  0.78406  0.34200  1.0000
  O   O19       1.0  0.37926  0.69033  0.35630  1.0000
  C   C108      1.0  0.09163  0.79614  0.34733  1.0000
  O   O20       1.0  0.12566  0.81284  0.35404  1.0000
  C   C109      1.0  0.24501  0.70739  0.33284  1.0000
  C   C110      1.0  0.26173  0.68910  0.34224  1.0000
  C   C111      1.0  0.29691  0.70687  0.34634  1.0000
  H   H35       1.0  0.21998  0.69385  0.34294  1.0000
  O   O21       1.0  0.31360  0.68952  0.35249  1.0000
  C   C112      1.0  0.20783  0.79619  0.34965  1.0000
  C   C113      1.0  0.24299  0.81409  0.34437  1.0000
  C   C114      1.0  0.25978  0.79592  0.33337  1.0000
  O   O22       1.0  0.19108  0.81345  0.35698  1.0000
  H   H36       1.0  0.28485  0.80954  0.34269  1.0000
  C   C115      1.0  0.29680  0.53856  0.33309  1.0000
  C   C116      1.0  0.31496  0.57352  0.34420  1.0000
  C   C117      1.0  0.29707  0.59079  0.34931  1.0000
  H   H37       1.0  0.31040  0.52711  0.34276  1.0000
  O   O23       1.0  0.31433  0.62480  0.35662  1.0000
  C   C118      1.0  0.20790  0.91249  0.34832  1.0000
  C   C119      1.0  0.19006  0.92981  0.34331  1.0000
  C   C120      1.0  0.20827  0.96479  0.33276  1.0000
  O   O24       1.0  0.19062  0.87847  0.35528  1.0000
  H   H38       1.0  0.19468  0.97625  0.34218  1.0000
  C   C121      1.0  0.15438  0.74483  0.34714  1.0000
  C   C122      1.0  0.09271  0.74402  0.34585  1.0000
  N   N37       1.0  0.11083  0.74891  0.42163  1.0000
  C   C123      1.0  0.13947  0.74770  0.42727  1.0000
  C   C124      1.0  0.15408  0.75440  0.50509  1.0000
  N   N38       1.0  0.16706  0.76040  0.57357  1.0000
  C   C125      1.0  0.25926  0.91038  0.34682  1.0000
  C   C126      1.0  0.25988  0.84946  0.34697  1.0000
  N   N39       1.0  0.25496  0.86286  0.42239  1.0000
  C   C127      1.0  0.25620  0.89273  0.42735  1.0000
  C   C128      1.0  0.24961  0.90093  0.50492  1.0000
  N   N40       1.0  0.24372  0.90816  0.57319  1.0000
  C   C129      1.0  0.09380  0.84962  0.34543  1.0000
  C   C130      1.0  0.15469  0.91137  0.34579  1.0000
  N   N41       1.0  0.14129  0.89290  0.42103  1.0000
  C   C131      1.0  0.11148  0.86421  0.42599  1.0000
  C   C132      1.0  0.10336  0.84944  0.50361  1.0000
  N   N42       1.0  0.09621  0.83633  0.57191  1.0000
  C   C133      1.0  0.35039  0.75819  0.34533  1.0000
  C   C134      1.0  0.41216  0.75920  0.34595  1.0000
  N   N43       1.0  0.39360  0.75391  0.42115  1.0000
  C   C135      1.0  0.36488  0.75497  0.42593  1.0000
  C   C136      1.0  0.34998  0.74806  0.50339  1.0000
  N   N44       1.0  0.33677  0.74188  0.57156  1.0000
  C   C137      1.0  0.24571  0.59289  0.34660  1.0000
  C   C138      1.0  0.24472  0.65373  0.34474  1.0000
  N   N45       1.0  0.24971  0.64055  0.42058  1.0000
  C   C139      1.0  0.24861  0.61077  0.42655  1.0000
  C   C140      1.0  0.25538  0.60299  0.50445  1.0000
  N   N46       1.0  0.26144  0.59613  0.57301  1.0000
  C   C141      1.0  0.41118  0.65361  0.34757  1.0000
  C   C142      1.0  0.35034  0.59199  0.34695  1.0000
  N   N47       1.0  0.36354  0.61021  0.42261  1.0000
  C   C143      1.0  0.39337  0.63888  0.42782  1.0000
  C   C144      1.0  0.40144  0.65361  0.50547  1.0000
  N   N48       1.0  0.40855  0.66668  0.57382  1.0000
  C   C145      1.0  0.98429  0.24237  0.31877  1.0000
  C   C146      1.0  0.93007  0.18884  0.33727  1.0000
  C   C147      1.0  0.96435  0.20647  0.31287  1.0000
  C   C148      1.0  0.52054  0.26082  0.31844  1.0000
  C   C149      1.0  0.54049  0.29671  0.31190  1.0000
  C   C150      1.0  0.57482  0.31437  0.33571  1.0000
  O   O25       1.0  0.97621  0.18675  0.28104  1.0000
  O   O26       1.0  0.52859  0.31639  0.28009  1.0000
  H   H39       1.0  0.47988  0.19132  0.21653  1.0000
  H   H40       1.0  0.87100  0.18626  0.29436  1.0000
  H   H41       1.0  0.63385  0.31700  0.29202  1.0000
  C   C151      1.0  0.76164  0.24276  0.31871  1.0000
  C   C152      1.0  0.81516  0.24194  0.33531  1.0000
  C   C153      1.0  0.79753  0.25869  0.31208  1.0000
  C   C154      1.0  0.74320  0.26057  0.31905  1.0000
  C   C155      1.0  0.70730  0.24460  0.31273  1.0000
  C   C156      1.0  0.68963  0.26118  0.33731  1.0000
  O   O27       1.0  0.81724  0.29035  0.28082  1.0000
  O   O28       1.0  0.68764  0.21306  0.28054  1.0000
  H   H42       1.0  0.81262  0.28962  0.21639  1.0000
  H   H43       1.0  0.69234  0.21405  0.21610  1.0000
  H   H44       1.0  0.81772  0.18558  0.29033  1.0000
  H   H45       1.0  0.68698  0.31767  0.29511  1.0000
  C   C157      1.0  0.76145  0.01980  0.31873  1.0000
  C   C158      1.0  0.76206  0.07399  0.33690  1.0000
  C   C159      1.0  0.74548  0.03973  0.31235  1.0000
  C   C160      1.0  0.74365  0.48355  0.31869  1.0000
  C   C161      1.0  0.75961  0.46361  0.31256  1.0000
  C   C162      1.0  0.74293  0.42929  0.33653  1.0000
  O   O29       1.0  0.71395  0.02785  0.28016  1.0000
  O   O30       1.0  0.79122  0.47551  0.28091  1.0000
  H   H46       1.0  0.71494  0.52412  0.21573  1.0000
  H   H47       1.0  0.79037  0.97927  0.21644  1.0000
  H   H48       1.0  0.81858  0.13313  0.29474  1.0000
  H   H49       1.0  0.68647  0.37022  0.29332  1.0000
  N   N49       1.0  0.63689  0.24104  0.27050  1.0000
  C   C163      1.0  0.60635  0.23870  0.26636  1.0000
  C   C164      1.0  0.59470  0.23814  0.18668  1.0000
  N   N50       1.0  0.58446  0.23785  0.11650  1.0000
  N   N51       1.0  0.76312  0.39657  0.27054  1.0000
  C   C165      1.0  0.76543  0.36833  0.26718  1.0000
  C   C166      1.0  0.76594  0.35708  0.18767  1.0000
  N   N52       1.0  0.76618  0.34701  0.11763  1.0000
  N   N53       1.0  0.60753  0.36744  0.26935  1.0000
  C   C167      1.0  0.63576  0.39800  0.26613  1.0000
  C   C168      1.0  0.64690  0.41004  0.18678  1.0000
  N   N54       1.0  0.65690  0.42063  0.11689  1.0000
  N   N55       1.0  0.86834  0.26245  0.26938  1.0000
  C   C169      1.0  0.89896  0.26491  0.26626  1.0000
  C   C170      1.0  0.91105  0.26577  0.18703  1.0000
  N   N56       1.0  0.92167  0.26632  0.11721  1.0000
  N   N57       1.0  0.74188  0.10649  0.26985  1.0000
  C   C171      1.0  0.73949  0.13467  0.26553  1.0000
  C   C172      1.0  0.73895  0.14573  0.18582  1.0000
  N   N58       1.0  0.73868  0.15566  0.11560  1.0000
  N   N59       1.0  0.89746  0.13596  0.27114  1.0000
  C   C173      1.0  0.86927  0.10539  0.26734  1.0000
  C   C174      1.0  0.85812  0.09371  0.18771  1.0000
  N   N60       1.0  0.84812  0.08346  0.11757  1.0000
  C   C175      1.0  0.96554  0.25899  0.33287  1.0000
  C   C176      1.0  0.93059  0.24224  0.34412  1.0000
  C   C177      1.0  0.91328  0.20707  0.34927  1.0000
  H   H50       1.0  0.97700  0.28406  0.34200  1.0000
  O   O31       1.0  0.87926  0.19033  0.35630  1.0000
  C   C178      1.0  0.59163  0.29614  0.34733  1.0000
  C   C179      1.0  0.57429  0.26097  0.34281  1.0000
  C   C180      1.0  0.53929  0.24421  0.33274  1.0000
  O   O32       1.0  0.62566  0.31285  0.35404  1.0000
  H   H51       1.0  0.52783  0.21918  0.34291  1.0000
  C   C181      1.0  0.74501  0.20739  0.33284  1.0000
  C   C182      1.0  0.76174  0.18910  0.34224  1.0000
  C   C183      1.0  0.79691  0.20687  0.34634  1.0000
  H   H52       1.0  0.71998  0.19385  0.34294  1.0000
  O   O33       1.0  0.81360  0.18952  0.35249  1.0000
  C   C184      1.0  0.70783  0.29619  0.34965  1.0000
  C   C185      1.0  0.74299  0.31409  0.34437  1.0000
  C   C186      1.0  0.75978  0.29592  0.33337  1.0000
  O   O34       1.0  0.69108  0.31345  0.35698  1.0000
  H   H53       1.0  0.78485  0.30953  0.34269  1.0000
  C   C187      1.0  0.79680  0.03856  0.33309  1.0000
  C   C188      1.0  0.81496  0.07352  0.34420  1.0000
  C   C189      1.0  0.79707  0.09079  0.34931  1.0000
  H   H54       1.0  0.81040  0.02711  0.34276  1.0000
  O   O35       1.0  0.81433  0.12480  0.35662  1.0000
  C   C190      1.0  0.70790  0.41249  0.34831  1.0000
  C   C191      1.0  0.69006  0.42981  0.34331  1.0000
  C   C192      1.0  0.70827  0.46478  0.33276  1.0000
  O   O36       1.0  0.69062  0.37847  0.35528  1.0000
  H   H55       1.0  0.69468  0.47625  0.34218  1.0000
  C   C193      1.0  0.65438  0.24482  0.34714  1.0000
  C   C194      1.0  0.59271  0.24402  0.34585  1.0000
  N   N61       1.0  0.61083  0.24891  0.42163  1.0000
  C   C195      1.0  0.63947  0.24770  0.42727  1.0000
  C   C196      1.0  0.65408  0.25440  0.50509  1.0000
  N   N62       1.0  0.66705  0.26040  0.57357  1.0000
  C   C197      1.0  0.75926  0.41038  0.34682  1.0000
  C   C198      1.0  0.75988  0.34946  0.34697  1.0000
  N   N63       1.0  0.75496  0.36287  0.42239  1.0000
  C   C199      1.0  0.75619  0.39273  0.42735  1.0000
  C   C200      1.0  0.74961  0.40094  0.50492  1.0000
  N   N64       1.0  0.74372  0.40816  0.57319  1.0000
  C   C201      1.0  0.59380  0.34962  0.34543  1.0000
  C   C202      1.0  0.65469  0.41138  0.34579  1.0000
  N   N65       1.0  0.64129  0.39290  0.42103  1.0000
  C   C203      1.0  0.61148  0.36421  0.42599  1.0000
  C   C204      1.0  0.60336  0.34944  0.50361  1.0000
  N   N66       1.0  0.59621  0.33633  0.57191  1.0000
  C   C205      1.0  0.85039  0.25819  0.34533  1.0000
  C   C206      1.0  0.91216  0.25920  0.34595  1.0000
  N   N67       1.0  0.89360  0.25391  0.42115  1.0000
  C   C207      1.0  0.86488  0.25497  0.42593  1.0000
  C   C208      1.0  0.84998  0.24806  0.50339  1.0000
  N   N68       1.0  0.83677  0.24188  0.57156  1.0000
  C   C209      1.0  0.74571  0.09289  0.34660  1.0000
  C   C210      1.0  0.74472  0.15373  0.34474  1.0000
  N   N69       1.0  0.74971  0.14056  0.42058  1.0000
  C   C211      1.0  0.74860  0.11077  0.42655  1.0000
  C   C212      1.0  0.75538  0.10299  0.50445  1.0000
  N   N70       1.0  0.76144  0.09613  0.57301  1.0000
  C   C213      1.0  0.91118  0.15361  0.34757  1.0000
  C   C214      1.0  0.85034  0.09199  0.34695  1.0000
  N   N71       1.0  0.86354  0.11021  0.42261  1.0000
  C   C215      1.0  0.89337  0.13888  0.42782  1.0000
  C   C216      1.0  0.90144  0.15361  0.50547  1.0000
  N   N72       1.0  0.90855  0.16668  0.57382  1.0000
  C   C217      1.0  0.98429  0.74237  0.31877  1.0000
  C   C218      1.0  0.93007  0.68884  0.33727  1.0000
  C   C219      1.0  0.96435  0.70647  0.31287  1.0000
  C   C220      1.0  0.52054  0.76082  0.31844  1.0000
  C   C221      1.0  0.54049  0.79671  0.31190  1.0000
  C   C222      1.0  0.57482  0.81436  0.33571  1.0000
  O   O37       1.0  0.97620  0.68675  0.28104  1.0000
  O   O38       1.0  0.52859  0.81639  0.28009  1.0000
  H   H56       1.0  0.47988  0.69132  0.21653  1.0000
  H   H57       1.0  0.87100  0.68626  0.29436  1.0000
  H   H58       1.0  0.63385  0.81701  0.29202  1.0000
  C   C223      1.0  0.76164  0.74276  0.31871  1.0000
  C   C224      1.0  0.81516  0.74193  0.33531  1.0000
  C   C225      1.0  0.79753  0.75869  0.31208  1.0000
  C   C226      1.0  0.74319  0.76057  0.31905  1.0000
  C   C227      1.0  0.70730  0.74460  0.31273  1.0000
  C   C228      1.0  0.68963  0.76118  0.33731  1.0000
  O   O39       1.0  0.81724  0.79035  0.28082  1.0000
  O   O40       1.0  0.68764  0.71306  0.28054  1.0000
  H   H59       1.0  0.81262  0.78962  0.21639  1.0000
  H   H60       1.0  0.69234  0.71405  0.21610  1.0000
  H   H61       1.0  0.81772  0.68558  0.29033  1.0000
  H   H62       1.0  0.68698  0.81768  0.29511  1.0000
  C   C229      1.0  0.76144  0.51980  0.31873  1.0000
  C   C230      1.0  0.76206  0.57399  0.33690  1.0000
  C   C231      1.0  0.74548  0.53973  0.31235  1.0000
  C   C232      1.0  0.74365  0.98355  0.31869  1.0000
  C   C233      1.0  0.75961  0.96361  0.31256  1.0000
  C   C234      1.0  0.74293  0.92929  0.33653  1.0000
  O   O41       1.0  0.71395  0.52785  0.28016  1.0000
  O   O42       1.0  0.79122  0.97551  0.28091  1.0000
  H   H63       1.0  0.71494  0.02412  0.21573  1.0000
  H   H64       1.0  0.79037  0.47927  0.21644  1.0000
  H   H65       1.0  0.81858  0.63313  0.29474  1.0000
  H   H66       1.0  0.68647  0.87022  0.29332  1.0000
  N   N73       1.0  0.63689  0.74104  0.27050  1.0000
  C   C235      1.0  0.60635  0.73870  0.26636  1.0000
  C   C236      1.0  0.59470  0.73814  0.18668  1.0000
  N   N74       1.0  0.58446  0.73785  0.11650  1.0000
  N   N75       1.0  0.76312  0.89657  0.27054  1.0000
  C   C237      1.0  0.76543  0.86833  0.26718  1.0000
  C   C238      1.0  0.76594  0.85708  0.18767  1.0000
  N   N76       1.0  0.76618  0.84701  0.11763  1.0000
  N   N77       1.0  0.60753  0.86745  0.26935  1.0000
  C   C239      1.0  0.63576  0.89800  0.26613  1.0000
  C   C240      1.0  0.64690  0.91004  0.18678  1.0000
  N   N78       1.0  0.65690  0.92062  0.11689  1.0000
  N   N79       1.0  0.86834  0.76245  0.26938  1.0000
  C   C241      1.0  0.89896  0.76491  0.26626  1.0000
  C   C242      1.0  0.91104  0.76577  0.18703  1.0000
  N   N80       1.0  0.92166  0.76632  0.11721  1.0000
  N   N81       1.0  0.74188  0.60649  0.26985  1.0000
  C   C243      1.0  0.73949  0.63467  0.26553  1.0000
  C   C244      1.0  0.73895  0.64573  0.18582  1.0000
  N   N82       1.0  0.73868  0.65567  0.11560  1.0000
  N   N83       1.0  0.89746  0.63596  0.27114  1.0000
  C   C245      1.0  0.86926  0.60539  0.26734  1.0000
  C   C246      1.0  0.85812  0.59371  0.18771  1.0000
  N   N84       1.0  0.84812  0.58346  0.11757  1.0000
  C   C247      1.0  0.96554  0.75899  0.33287  1.0000
  C   C248      1.0  0.93059  0.74224  0.34413  1.0000
  C   C249      1.0  0.91328  0.70707  0.34927  1.0000
  H   H67       1.0  0.97700  0.78406  0.34200  1.0000
  O   O43       1.0  0.87926  0.69033  0.35630  1.0000
  C   C250      1.0  0.59163  0.79614  0.34733  1.0000
  C   C251      1.0  0.57429  0.76097  0.34281  1.0000
  C   C252      1.0  0.53929  0.74421  0.33274  1.0000
  O   O44       1.0  0.62566  0.81284  0.35404  1.0000
  H   H68       1.0  0.52783  0.71918  0.34291  1.0000
  C   C253      1.0  0.74501  0.70739  0.33284  1.0000
  C   C254      1.0  0.76174  0.68910  0.34224  1.0000
  C   C255      1.0  0.79691  0.70687  0.34634  1.0000
  H   H69       1.0  0.71998  0.69385  0.34294  1.0000
  O   O45       1.0  0.81360  0.68952  0.35249  1.0000
  C   C256      1.0  0.70783  0.79619  0.34965  1.0000
  C   C257      1.0  0.74299  0.81409  0.34437  1.0000
  C   C258      1.0  0.75978  0.79592  0.33337  1.0000
  O   O46       1.0  0.69108  0.81345  0.35698  1.0000
  H   H70       1.0  0.78485  0.80954  0.34269  1.0000
  C   C259      1.0  0.79680  0.53856  0.33309  1.0000
  C   C260      1.0  0.81496  0.57352  0.34420  1.0000
  C   C261      1.0  0.79707  0.59079  0.34931  1.0000
  H   H71       1.0  0.81039  0.52711  0.34276  1.0000
  O   O47       1.0  0.81433  0.62480  0.35662  1.0000
  C   C262      1.0  0.70790  0.91249  0.34832  1.0000
  C   C263      1.0  0.69006  0.92981  0.34331  1.0000
  C   C264      1.0  0.70827  0.96479  0.33276  1.0000
  O   O48       1.0  0.69062  0.87847  0.35528  1.0000
  H   H72       1.0  0.69468  0.97625  0.34218  1.0000
  C   C265      1.0  0.65438  0.74483  0.34714  1.0000
  C   C266      1.0  0.59271  0.74402  0.34585  1.0000
  N   N85       1.0  0.61083  0.74891  0.42163  1.0000
  C   C267      1.0  0.63947  0.74770  0.42727  1.0000
  C   C268      1.0  0.65408  0.75440  0.50509  1.0000
  N   N86       1.0  0.66706  0.76040  0.57357  1.0000
  C   C269      1.0  0.75926  0.91038  0.34682  1.0000
  C   C270      1.0  0.75988  0.84946  0.34697  1.0000
  N   N87       1.0  0.75496  0.86286  0.42239  1.0000
  C   C271      1.0  0.75619  0.89273  0.42735  1.0000
  C   C272      1.0  0.74961  0.90093  0.50492  1.0000
  N   N88       1.0  0.74372  0.90816  0.57319  1.0000
  C   C273      1.0  0.59380  0.84962  0.34543  1.0000
  C   C274      1.0  0.65469  0.91137  0.34579  1.0000
  N   N89       1.0  0.64129  0.89290  0.42103  1.0000
  C   C275      1.0  0.61148  0.86421  0.42599  1.0000
  C   C276      1.0  0.60336  0.84944  0.50361  1.0000
  N   N90       1.0  0.59621  0.83633  0.57191  1.0000
  C   C277      1.0  0.85039  0.75819  0.34533  1.0000
  C   C278      1.0  0.91216  0.75920  0.34595  1.0000
  N   N91       1.0  0.89360  0.75391  0.42115  1.0000
  C   C279      1.0  0.86488  0.75497  0.42593  1.0000
  C   C280      1.0  0.84998  0.74806  0.50339  1.0000
  N   N92       1.0  0.83677  0.74188  0.57156  1.0000
  C   C281      1.0  0.74571  0.59289  0.34660  1.0000
  C   C282      1.0  0.74472  0.65373  0.34474  1.0000
  N   N93       1.0  0.74971  0.64055  0.42058  1.0000
  C   C283      1.0  0.74860  0.61077  0.42655  1.0000
  C   C284      1.0  0.75538  0.60299  0.50445  1.0000
  N   N94       1.0  0.76144  0.59613  0.57301  1.0000
  C   C285      1.0  0.91118  0.65361  0.34757  1.0000
  C   C286      1.0  0.85034  0.59199  0.34695  1.0000
  N   N95       1.0  0.86355  0.61021  0.42261  1.0000
  C   C287      1.0  0.89336  0.63888  0.42782  1.0000
  C   C288      1.0  0.90144  0.65361  0.50547  1.0000
  N   N96       1.0  0.90855  0.66668  0.57382  1.0000
