data_image0
_chemical_formula_structural       C2NH2CHC3HC2HCHCHC3NH2C6N2H4C6N2H4C4HNCH3C4HCNHCH3C3HCNHCH3C4HCNHCH3C4HCNHCH3C4HCNHCH3C3H2C3H2C3H2C3H2C3H2CNC3HCH3CNC4H2CH3NC4HCH3CNC4H2CH3CNC4H2CH3CNC4H2CH3
_chemical_formula_sum              "C108 N18 H84"
_cell_length_a       31.5458
_cell_length_b       31.5458
_cell_length_c       14.8414
_cell_angle_alpha    90
_cell_angle_beta     90
_cell_angle_gamma    120

_space_group_name_H-M_alt    "P 1"
_space_group_IT_number       1

loop_
  _space_group_symop_operation_xyz
  'x, y, z'

loop_
  _atom_site_type_symbol
  _atom_site_label
  _atom_site_symmetry_multiplicity
  _atom_site_fract_x
  _atom_site_fract_y
  _atom_site_fract_z
  _atom_site_occupancy
  C   C1        1.0  0.03487  0.51958  0.32794  1.0000
  C   C2        1.0  0.06307  0.57063  0.30324  1.0000
  N   N1        1.0  0.04252  0.59339  0.25748  1.0000
  H   H1        1.0  0.06188  0.62699  0.23668  1.0000
  H   H2        1.0  0.01017  0.57477  0.23096  1.0000
  C   C3        1.0  0.06147  0.49677  0.35931  1.0000
  H   H3        1.0  0.04321  0.46073  0.37788  1.0000
  C   C4        1.0  0.11464  0.59772  0.32032  1.0000
  C   C5        1.0  0.11303  0.52169  0.36545  1.0000
  C   C6        1.0  0.14718  0.47364  0.30204  1.0000
  H   H4        1.0  0.12434  0.46432  0.24762  1.0000
  C   C7        1.0  0.14615  0.64952  0.30922  1.0000
  C   C8        1.0  0.13838  0.57239  0.34969  1.0000
  H   H5        1.0  0.17580  0.59116  0.35649  1.0000
  C   C9        1.0  0.14161  0.49831  0.37647  1.0000
  H   H6        1.0  0.17633  0.53456  0.49637  1.0000
  C   C10       1.0  0.14863  0.68171  0.37774  1.0000
  H   H7        1.0  0.12287  0.66986  0.42765  1.0000
  C   C11       1.0  0.98114  0.49106  0.32799  1.0000
  C   C12       1.0  0.90135  0.41293  0.32037  1.0000
  C   C13       1.0  0.95293  0.44000  0.30327  1.0000
  N   N2        1.0  0.97352  0.41724  0.25765  1.0000
  H   H8        1.0  0.00572  0.43601  0.23062  1.0000
  H   H9        1.0  0.95395  0.38378  0.23625  1.0000
  C   C14       1.0  0.52229  0.49276  0.32798  1.0000
  C   C15       1.0  0.60039  0.49107  0.32015  1.0000
  C   C16       1.0  0.57332  0.51559  0.30314  1.0000
  C   C17       1.0  0.49376  0.51796  0.32798  1.0000
  C   C18       1.0  0.44271  0.49512  0.30325  1.0000
  C   C19       1.0  0.41564  0.51962  0.32032  1.0000
  N   N3        1.0  0.59607  0.55895  0.25752  1.0000
  N   N4        1.0  0.41995  0.45181  0.25752  1.0000
  H   H10       1.0  0.57729  0.57238  0.23055  1.0000
  H   H11       1.0  0.62951  0.57283  0.23606  1.0000
  H   H12       1.0  0.38634  0.43756  0.23672  1.0000
  H   H13       1.0  0.43855  0.43805  0.23102  1.0000
  C   C20       1.0  0.52065  0.03223  0.32786  1.0000
  C   C21       1.0  0.52229  0.11200  0.32019  1.0000
  C   C22       1.0  0.49780  0.06043  0.30313  1.0000
  C   C23       1.0  0.49545  0.97850  0.32792  1.0000
  C   C24       1.0  0.51828  0.95028  0.30319  1.0000
  C   C25       1.0  0.49377  0.89871  0.32022  1.0000
  N   N5        1.0  0.45445  0.03986  0.25750  1.0000
  N   N6        1.0  0.56165  0.97086  0.25760  1.0000
  H   H14       1.0  0.44094  0.00759  0.23069  1.0000
  H   H15       1.0  0.44035  0.05928  0.23635  1.0000
  H   H16       1.0  0.57554  0.95132  0.23613  1.0000
  H   H17       1.0  0.57502  0.00305  0.23053  1.0000
  C   C26       1.0  0.36384  0.49934  0.30923  1.0000
  C   C27       1.0  0.26857  0.48663  0.33056  1.0000
  C   C28       1.0  0.29823  0.51489  0.25683  1.0000
  C   C29       1.0  0.34554  0.52055  0.24767  1.0000
  H   H18       1.0  0.36893  0.54416  0.20003  1.0000
  N   N7        1.0  0.18798  0.46972  0.29418  1.0000
  C   C30       1.0  0.28316  0.54214  0.19493  1.0000
  H   H19       1.0  0.27497  0.56663  0.23352  1.0000
  H   H20       1.0  0.25064  0.51638  0.15741  1.0000
  H   H21       1.0  0.31149  0.56431  0.14588  1.0000
  C   C31       1.0  0.51407  0.86719  0.30929  1.0000
  C   C32       1.0  0.52682  0.78469  0.33056  1.0000
  C   C33       1.0  0.49856  0.78608  0.25681  1.0000
  C   C34       1.0  0.49288  0.82772  0.24764  1.0000
  H   H22       1.0  0.46927  0.82750  0.20000  1.0000
  C   C35       1.0  0.53980  0.67628  0.30210  1.0000
  N   N8        1.0  0.54375  0.72102  0.29423  1.0000
  H   H23       1.0  0.54916  0.66279  0.24771  1.0000
  C   C36       1.0  0.47133  0.74377  0.19490  1.0000
  H   H24       1.0  0.44683  0.71108  0.23347  1.0000
  H   H25       1.0  0.49710  0.73701  0.15740  1.0000
  H   H26       1.0  0.44917  0.74992  0.14583  1.0000
  C   C37       1.0  0.22871  0.74479  0.33052  1.0000
  C   C38       1.0  0.22729  0.71513  0.25676  1.0000
  C   C39       1.0  0.18564  0.66782  0.24762  1.0000
  H   H27       1.0  0.18586  0.64443  0.19997  1.0000
  C   C40       1.0  0.33711  0.86618  0.30197  1.0000
  N   N9        1.0  0.29238  0.82539  0.29413  1.0000
  H   H28       1.0  0.35060  0.88902  0.24757  1.0000
  C   C41       1.0  0.26959  0.73021  0.19482  1.0000
  H   H29       1.0  0.30229  0.73840  0.23337  1.0000
  H   H30       1.0  0.27635  0.76274  0.15732  1.0000
  H   H31       1.0  0.26342  0.70188  0.14576  1.0000
  C   C42       1.0  0.65219  0.51136  0.30909  1.0000
  C   C43       1.0  0.74746  0.52407  0.33048  1.0000
  C   C44       1.0  0.71781  0.49582  0.25673  1.0000
  C   C45       1.0  0.67050  0.49016  0.24754  1.0000
  H   H32       1.0  0.64712  0.46654  0.19990  1.0000
  C   C46       1.0  0.86885  0.53703  0.30211  1.0000
  N   N10       1.0  0.82805  0.54097  0.29419  1.0000
  H   H33       1.0  0.89170  0.54638  0.24773  1.0000
  C   C47       1.0  0.73289  0.46857  0.19484  1.0000
  H   H34       1.0  0.74107  0.44407  0.23344  1.0000
  H   H35       1.0  0.76543  0.49434  0.15735  1.0000
  H   H36       1.0  0.70457  0.44641  0.14577  1.0000
  C   C48       1.0  0.50200  0.14351  0.30915  1.0000
  C   C49       1.0  0.48928  0.22605  0.33054  1.0000
  C   C50       1.0  0.51750  0.22465  0.25675  1.0000
  C   C51       1.0  0.52317  0.18300  0.24756  1.0000
  H   H37       1.0  0.54676  0.18323  0.19988  1.0000
  C   C52       1.0  0.47627  0.33446  0.30212  1.0000
  N   N11       1.0  0.47234  0.28972  0.29424  1.0000
  H   H38       1.0  0.46690  0.34795  0.24775  1.0000
  C   C53       1.0  0.54471  0.26696  0.19481  1.0000
  H   H39       1.0  0.56923  0.29965  0.23336  1.0000
  H   H40       1.0  0.51893  0.27371  0.15735  1.0000
  H   H41       1.0  0.56686  0.26080  0.14571  1.0000
  C   C54       1.0  0.86983  0.36112  0.30937  1.0000
  C   C55       1.0  0.78733  0.26586  0.33055  1.0000
  C   C56       1.0  0.78872  0.29555  0.25686  1.0000
  C   C57       1.0  0.83036  0.34287  0.24774  1.0000
  H   H42       1.0  0.83014  0.36627  0.20014  1.0000
  C   C58       1.0  0.67893  0.14446  0.30190  1.0000
  N   N12       1.0  0.72367  0.18527  0.29412  1.0000
  H   H43       1.0  0.66543  0.12163  0.24749  1.0000
  C   C59       1.0  0.74640  0.28049  0.19497  1.0000
  H   H44       1.0  0.71371  0.27228  0.23357  1.0000
  H   H45       1.0  0.73964  0.24797  0.15742  1.0000
  H   H46       1.0  0.75255  0.30883  0.14595  1.0000
  C   C60       1.0  0.95455  0.51388  0.35937  1.0000
  C   C61       1.0  0.90300  0.48895  0.36567  1.0000
  C   C62       1.0  0.87764  0.43826  0.34990  1.0000
  H   H47       1.0  0.97283  0.54992  0.37792  1.0000
  H   H48       1.0  0.84021  0.41949  0.35661  1.0000
  C   C63       1.0  0.49947  0.44335  0.35937  1.0000
  C   C64       1.0  0.52438  0.41671  0.36557  1.0000
  C   C65       1.0  0.57506  0.44202  0.34960  1.0000
  H   H49       1.0  0.46344  0.42559  0.37801  1.0000
  H   H50       1.0  0.59384  0.42337  0.35636  1.0000
  C   C66       1.0  0.44098  0.56869  0.34971  1.0000
  C   C67       1.0  0.49167  0.59402  0.36549  1.0000
  C   C68       1.0  0.51659  0.56737  0.35931  1.0000
  H   H51       1.0  0.42221  0.58733  0.35650  1.0000
  H   H52       1.0  0.55263  0.58515  0.37788  1.0000
  C   C69       1.0  0.57007  0.05883  0.35919  1.0000
  C   C70       1.0  0.59671  0.11039  0.36532  1.0000
  C   C71       1.0  0.57136  0.13574  0.34959  1.0000
  H   H53       1.0  0.58785  0.04057  0.37776  1.0000
  H   H54       1.0  0.59001  0.17316  0.35630  1.0000
  C   C72       1.0  0.44471  0.87498  0.34964  1.0000
  C   C73       1.0  0.41937  0.90034  0.36539  1.0000
  C   C74       1.0  0.44602  0.95190  0.35923  1.0000
  H   H55       1.0  0.42605  0.83756  0.35638  1.0000
  H   H56       1.0  0.42825  0.97018  0.37780  1.0000
  C   C75       1.0  0.33164  0.46960  0.37773  1.0000
  N   N13       1.0  0.28680  0.46540  0.38661  1.0000
  C   C76       1.0  0.22455  0.48591  0.35636  1.0000
  C   C77       1.0  0.21986  0.50878  0.43569  1.0000
  C   C78       1.0  0.17796  0.51415  0.44415  1.0000
  H   H57       1.0  0.34349  0.45567  0.42762  1.0000
  C   C79       1.0  0.25821  0.53251  0.50634  1.0000
  H   H58       1.0  0.29126  0.53091  0.49287  1.0000
  H   H59       1.0  0.24353  0.51470  0.57103  1.0000
  H   H60       1.0  0.26904  0.57113  0.51222  1.0000
  C   C80       1.0  0.54384  0.86478  0.37776  1.0000
  N   N14       1.0  0.54803  0.82414  0.38662  1.0000
  C   C81       1.0  0.52753  0.74138  0.35637  1.0000
  C   C82       1.0  0.50458  0.71378  0.43562  1.0000
  C   C83       1.0  0.49920  0.66652  0.44404  1.0000
  C   C84       1.0  0.51507  0.64597  0.37643  1.0000
  H   H61       1.0  0.47875  0.64447  0.49624  1.0000
  H   H62       1.0  0.55775  0.89055  0.42764  1.0000
  C   C85       1.0  0.48082  0.72840  0.50624  1.0000
  H   H63       1.0  0.48246  0.76306  0.49280  1.0000
  H   H64       1.0  0.49858  0.73148  0.57097  1.0000
  H   H65       1.0  0.44219  0.70061  0.51199  1.0000
  N   N15       1.0  0.18927  0.72655  0.38660  1.0000
  C   C86       1.0  0.27201  0.78881  0.35630  1.0000
  C   C87       1.0  0.29962  0.79350  0.43557  1.0000
  C   C88       1.0  0.34688  0.83539  0.44396  1.0000
  C   C89       1.0  0.36741  0.87178  0.37632  1.0000
  H   H66       1.0  0.36893  0.83701  0.49617  1.0000
  C   C90       1.0  0.28502  0.75514  0.50621  1.0000
  H   H67       1.0  0.25036  0.72210  0.49278  1.0000
  H   H68       1.0  0.28191  0.76982  0.57093  1.0000
  H   H69       1.0  0.31281  0.74431  0.51202  1.0000
  C   C91       1.0  0.68438  0.54109  0.37760  1.0000
  N   N16       1.0  0.72921  0.54529  0.38652  1.0000
  C   C92       1.0  0.79147  0.52478  0.35632  1.0000
  C   C93       1.0  0.79612  0.50187  0.43563  1.0000
  C   C94       1.0  0.83801  0.49650  0.44410  1.0000
  C   C95       1.0  0.87442  0.51233  0.37650  1.0000
  H   H70       1.0  0.83961  0.47607  0.49634  1.0000
  H   H71       1.0  0.67252  0.55502  0.42748  1.0000
  C   C96       1.0  0.75775  0.47813  0.50624  1.0000
  H   H72       1.0  0.72471  0.47975  0.49276  1.0000
  H   H73       1.0  0.77241  0.49592  0.57095  1.0000
  H   H74       1.0  0.74690  0.43950  0.51208  1.0000
  C   C97       1.0  0.47229  0.14598  0.37771  1.0000
  N   N17       1.0  0.46809  0.18661  0.38661  1.0000
  C   C98       1.0  0.48857  0.26936  0.35636  1.0000
  C   C99       1.0  0.51151  0.29695  0.43562  1.0000
  C   C100      1.0  0.51688  0.34421  0.44406  1.0000
  C   C101      1.0  0.50100  0.36475  0.37646  1.0000
  H   H75       1.0  0.53732  0.36626  0.49626  1.0000
  H   H76       1.0  0.45839  0.12021  0.42761  1.0000
  C   C102      1.0  0.53529  0.28235  0.50621  1.0000
  H   H77       1.0  0.53366  0.24769  0.49275  1.0000
  H   H78       1.0  0.51752  0.27924  0.57095  1.0000
  H   H79       1.0  0.57391  0.31014  0.51198  1.0000
  C   C103      1.0  0.86742  0.32891  0.37778  1.0000
  N   N18       1.0  0.82678  0.28407  0.38661  1.0000
  C   C104      1.0  0.74402  0.22184  0.35632  1.0000
  C   C105      1.0  0.71642  0.21716  0.43559  1.0000
  C   C106      1.0  0.66914  0.17528  0.44402  1.0000
  C   C107      1.0  0.64869  0.13898  0.37624  1.0000
  H   H80       1.0  0.64707  0.17365  0.49618  1.0000
  H   H81       1.0  0.89320  0.34075  0.42766  1.0000
  C   C108      1.0  0.73103  0.25551  0.50624  1.0000
  H   H82       1.0  0.76570  0.28854  0.49283  1.0000
  H   H83       1.0  0.73411  0.24082  0.57096  1.0000
  H   H84       1.0  0.70325  0.26637  0.51202  1.0000
