data_image0
_chemical_formula_structural       C4OC4OH4N2C4OC4OH4N2C4OC4OH4N2CNC4H2CH3CHCNC4H2CH3CHCNC4H2CH3CHCNC4H2CH3CHCNC4H2CH3CHCNC4H2CH3CHC2HC2HN2C2HC2HN2C2HC2HN2C4HCNHCH3CHC4HCNHCH3CHC4HCNHCH3CHC4HCNHCH3CHC4HCNHCH3CHC4HCNHCH3CH
_chemical_formula_sum              "C120 O6 H90 N24"
_cell_length_a       38.9818
_cell_length_b       38.9818
_cell_length_c       14.9459
_cell_angle_alpha    90
_cell_angle_beta     90
_cell_angle_gamma    120

_space_group_name_H-M_alt    "P 1"
_space_group_IT_number       1

loop_
  _space_group_symop_operation_xyz
  'x, y, z'

loop_
  _atom_site_type_symbol
  _atom_site_label
  _atom_site_symmetry_multiplicity
  _atom_site_fract_x
  _atom_site_fract_y
  _atom_site_fract_z
  _atom_site_occupancy
  C   C1        1.0  0.98069  0.49067  0.36245  1.0000
  C   C2        1.0  0.89542  0.44746  0.36407  1.0000
  C   C3        1.0  0.91645  0.42690  0.37096  1.0000
  C   C4        1.0  0.95834  0.44858  0.37174  1.0000
  O   O1        1.0  0.85495  0.42726  0.36680  1.0000
  C   C5        1.0  0.02410  0.51266  0.36245  1.0000
  C   C6        1.0  0.04646  0.55477  0.37158  1.0000
  C   C7        1.0  0.08834  0.57644  0.37074  1.0000
  C   C8        1.0  0.10937  0.55588  0.36389  1.0000
  O   O2        1.0  0.14984  0.57608  0.36657  1.0000
  H   H1        1.0  0.84593  0.41977  0.30470  1.0000
  H   H2        1.0  0.15885  0.58370  0.30451  1.0000
  H   H3        1.0  0.97213  0.43256  0.38123  1.0000
  H   H4        1.0  0.03266  0.57080  0.38088  1.0000
  N   N1        1.0  0.11030  0.61566  0.37357  1.0000
  N   N2        1.0  0.89450  0.38768  0.37413  1.0000
  C   C9        1.0  0.51373  0.49147  0.36256  1.0000
  C   C10       1.0  0.55698  0.44943  0.36355  1.0000
  C   C11       1.0  0.57752  0.49102  0.37047  1.0000
  C   C12       1.0  0.55585  0.51122  0.37143  1.0000
  O   O3        1.0  0.57717  0.42915  0.36638  1.0000
  C   C13       1.0  0.49173  0.51289  0.36303  1.0000
  C   C14       1.0  0.44961  0.49311  0.37201  1.0000
  C   C15       1.0  0.42793  0.51332  0.37188  1.0000
  C   C16       1.0  0.44849  0.55493  0.36603  1.0000
  O   O4        1.0  0.42824  0.57516  0.36910  1.0000
  H   H5        1.0  0.58517  0.42811  0.30448  1.0000
  H   H6        1.0  0.42148  0.57751  0.30684  1.0000
  H   H7        1.0  0.57188  0.54103  0.38085  1.0000
  H   H8        1.0  0.43356  0.46326  0.38063  1.0000
  N   N3        1.0  0.38871  0.49603  0.37458  1.0000
  N   N4        1.0  0.61674  0.50828  0.37382  1.0000
  C   C17       1.0  0.51329  0.02334  0.36269  1.0000
  C   C18       1.0  0.55549  0.10856  0.36408  1.0000
  C   C19       1.0  0.51393  0.08762  0.37211  1.0000
  C   C20       1.0  0.49365  0.04573  0.37304  1.0000
  O   O5        1.0  0.57585  0.14904  0.36682  1.0000
  C   C21       1.0  0.49179  0.97997  0.36263  1.0000
  C   C22       1.0  0.51142  0.95756  0.37292  1.0000
  C   C23       1.0  0.49113  0.91568  0.37189  1.0000
  C   C24       1.0  0.44958  0.89475  0.36380  1.0000
  O   O6        1.0  0.42919  0.85428  0.36648  1.0000
  H   H9        1.0  0.57695  0.15807  0.30488  1.0000
  H   H10       1.0  0.42826  0.84526  0.30459  1.0000
  H   H11       1.0  0.46388  0.03194  0.38345  1.0000
  H   H12       1.0  0.54119  0.97135  0.38327  1.0000
  N   N5        1.0  0.50828  0.89363  0.37553  1.0000
  N   N6        1.0  0.49676  0.10964  0.37585  1.0000
  C   C25       1.0  0.29712  0.44173  0.28521  1.0000
  N   N7        1.0  0.26402  0.44459  0.27693  1.0000
  C   C26       1.0  0.21856  0.46584  0.31644  1.0000
  C   C27       1.0  0.21908  0.48889  0.24202  1.0000
  C   C28       1.0  0.18636  0.49483  0.23058  1.0000
  C   C29       1.0  0.15393  0.47883  0.29054  1.0000
  H   H13       1.0  0.18692  0.51255  0.17927  1.0000
  H   H14       1.0  0.30530  0.43054  0.23274  1.0000
  C   C30       1.0  0.25353  0.50881  0.18021  1.0000
  H   H15       1.0  0.28048  0.52741  0.21830  1.0000
  H   H16       1.0  0.25011  0.52767  0.13120  1.0000
  H   H17       1.0  0.25711  0.48665  0.14337  1.0000
  C   C31       1.0  0.12510  0.48974  0.28261  1.0000
  H   H18       1.0  0.12142  0.49938  0.22354  1.0000
  C   C32       1.0  0.56279  0.85631  0.28842  1.0000
  N   N8        1.0  0.56005  0.82039  0.28048  1.0000
  C   C33       1.0  0.53913  0.75383  0.32051  1.0000
  C   C34       1.0  0.51646  0.73113  0.24582  1.0000
  C   C35       1.0  0.51133  0.69279  0.23420  1.0000
  C   C36       1.0  0.52774  0.67686  0.29436  1.0000
  H   H19       1.0  0.49393  0.67549  0.18268  1.0000
  H   H20       1.0  0.57405  0.87566  0.23592  1.0000
  C   C37       1.0  0.49620  0.74521  0.18383  1.0000
  H   H21       1.0  0.47720  0.75309  0.22172  1.0000
  H   H22       1.0  0.47768  0.72283  0.13466  1.0000
  H   H23       1.0  0.51814  0.77115  0.14716  1.0000
  C   C38       1.0  0.51800  0.63749  0.28591  1.0000
  H   H24       1.0  0.51123  0.62499  0.22550  1.0000
  C   C39       1.0  0.14764  0.70713  0.28418  1.0000
  N   N9        1.0  0.18364  0.74016  0.27563  1.0000
  C   C40       1.0  0.25042  0.78554  0.31477  1.0000
  C   C41       1.0  0.27291  0.78476  0.24053  1.0000
  C   C42       1.0  0.31164  0.81733  0.22898  1.0000
  C   C43       1.0  0.32820  0.84987  0.28864  1.0000
  H   H25       1.0  0.32876  0.81655  0.17785  1.0000
  H   H26       1.0  0.12824  0.69890  0.23176  1.0000
  C   C44       1.0  0.25822  0.75017  0.17908  1.0000
  H   H27       1.0  0.24977  0.72328  0.21746  1.0000
  H   H28       1.0  0.28045  0.75340  0.13014  1.0000
  H   H29       1.0  0.23252  0.74664  0.14214  1.0000
  C   C45       1.0  0.36806  0.87847  0.28084  1.0000
  H   H30       1.0  0.38161  0.88145  0.22237  1.0000
  C   C46       1.0  0.70810  0.56194  0.28429  1.0000
  N   N10       1.0  0.74113  0.55895  0.27617  1.0000
  C   C47       1.0  0.78660  0.53783  0.31638  1.0000
  C   C48       1.0  0.78594  0.51445  0.24248  1.0000
  C   C49       1.0  0.81870  0.50859  0.23099  1.0000
  C   C50       1.0  0.85128  0.52494  0.29051  1.0000
  H   H31       1.0  0.81803  0.49062  0.18013  1.0000
  H   H32       1.0  0.69984  0.57289  0.23149  1.0000
  C   C51       1.0  0.75131  0.49417  0.18127  1.0000
  H   H33       1.0  0.72448  0.47573  0.21988  1.0000
  H   H34       1.0  0.75463  0.47509  0.13272  1.0000
  H   H35       1.0  0.74757  0.51610  0.14388  1.0000
  C   C52       1.0  0.88026  0.51422  0.28254  1.0000
  H   H36       1.0  0.88423  0.50506  0.22315  1.0000
  C   C53       1.0  0.44216  0.14685  0.28862  1.0000
  N   N11       1.0  0.44516  0.18287  0.28003  1.0000
  C   C54       1.0  0.46702  0.24981  0.31848  1.0000
  C   C55       1.0  0.48986  0.27198  0.24347  1.0000
  C   C56       1.0  0.49610  0.31073  0.23163  1.0000
  C   C57       1.0  0.48062  0.32763  0.29172  1.0000
  H   H37       1.0  0.51371  0.32762  0.17989  1.0000
  H   H38       1.0  0.43063  0.12731  0.23652  1.0000
  C   C58       1.0  0.50928  0.25698  0.18144  1.0000
  H   H39       1.0  0.52788  0.24855  0.21926  1.0000
  H   H40       1.0  0.52803  0.27900  0.13189  1.0000
  H   H41       1.0  0.48682  0.23120  0.14522  1.0000
  C   C59       1.0  0.49197  0.36750  0.28343  1.0000
  H   H42       1.0  0.50255  0.38081  0.22472  1.0000
  C   C60       1.0  0.85708  0.29646  0.28374  1.0000
  N   N12       1.0  0.82110  0.26339  0.27531  1.0000
  C   C61       1.0  0.75447  0.21777  0.31501  1.0000
  C   C62       1.0  0.73182  0.21855  0.24113  1.0000
  C   C63       1.0  0.69316  0.18585  0.22951  1.0000
  C   C64       1.0  0.67684  0.15319  0.28885  1.0000
  H   H43       1.0  0.67590  0.18663  0.17872  1.0000
  H   H44       1.0  0.87636  0.30483  0.23106  1.0000
  C   C65       1.0  0.74624  0.25325  0.18011  1.0000
  H   H45       1.0  0.75461  0.28004  0.21885  1.0000
  H   H46       1.0  0.72388  0.25001  0.13151  1.0000
  H   H47       1.0  0.77193  0.25701  0.14277  1.0000
  C   C66       1.0  0.63706  0.12438  0.28102  1.0000
  H   H48       1.0  0.62368  0.12110  0.22219  1.0000
  C   C67       1.0  0.95778  0.50983  0.35341  1.0000
  C   C68       1.0  0.91599  0.48900  0.35547  1.0000
  H   H49       1.0  0.97097  0.53965  0.34412  1.0000
  C   C69       1.0  0.08880  0.51433  0.35548  1.0000
  C   C70       1.0  0.04701  0.49349  0.35354  1.0000
  H   H50       1.0  0.03381  0.46367  0.34430  1.0000
  N   N13       1.0  0.10997  0.49620  0.35264  1.0000
  N   N14       1.0  0.89480  0.50711  0.35268  1.0000
  C   C71       1.0  0.49457  0.44939  0.35371  1.0000
  C   C72       1.0  0.51542  0.42843  0.35525  1.0000
  H   H51       1.0  0.46474  0.43273  0.34486  1.0000
  C   C73       1.0  0.49003  0.57594  0.35775  1.0000
  C   C74       1.0  0.51087  0.55500  0.35485  1.0000
  H   H52       1.0  0.54070  0.57168  0.34581  1.0000
  N   N15       1.0  0.50794  0.61522  0.35563  1.0000
  N   N16       1.0  0.49719  0.38910  0.35285  1.0000
  C   C75       1.0  0.55531  0.04613  0.35259  1.0000
  C   C76       1.0  0.57635  0.08792  0.35453  1.0000
  H   H53       1.0  0.57177  0.03281  0.34245  1.0000
  C   C77       1.0  0.42872  0.91541  0.35431  1.0000
  C   C78       1.0  0.44977  0.95720  0.35250  1.0000
  H   H54       1.0  0.43332  0.97053  0.34234  1.0000
  N   N17       1.0  0.38941  0.89437  0.35084  1.0000
  N   N18       1.0  0.61566  0.10901  0.35116  1.0000
  C   C79       1.0  0.32154  0.45764  0.36111  1.0000
  C   C80       1.0  0.25111  0.46079  0.33972  1.0000
  C   C81       1.0  0.27343  0.47575  0.41997  1.0000
  C   C82       1.0  0.30870  0.47398  0.42886  1.0000
  H   H55       1.0  0.32619  0.48613  0.48418  1.0000
  C   C83       1.0  0.15508  0.45569  0.36196  1.0000
  N   N19       1.0  0.18677  0.45051  0.37237  1.0000
  H   H56       1.0  0.13296  0.44375  0.40859  1.0000
  C   C84       1.0  0.26240  0.49530  0.49079  1.0000
  H   H57       1.0  0.26027  0.51994  0.46220  1.0000
  H   H58       1.0  0.28399  0.50702  0.54516  1.0000
  H   H59       1.0  0.23387  0.47401  0.51972  1.0000
  C   C85       1.0  0.35875  0.46127  0.36315  1.0000
  H   H60       1.0  0.36252  0.43909  0.34292  1.0000
  C   C86       1.0  0.54676  0.86484  0.36408  1.0000
  C   C87       1.0  0.54380  0.79133  0.34335  1.0000
  C   C88       1.0  0.52864  0.79867  0.42328  1.0000
  C   C89       1.0  0.53029  0.83568  0.43184  1.0000
  H   H61       1.0  0.51798  0.84100  0.48687  1.0000
  C   C90       1.0  0.55034  0.70120  0.36623  1.0000
  N   N20       1.0  0.55480  0.73779  0.37666  1.0000
  H   H62       1.0  0.56250  0.69127  0.41291  1.0000
  C   C91       1.0  0.50905  0.76811  0.49411  1.0000
  H   H63       1.0  0.48452  0.74129  0.46546  1.0000
  H   H64       1.0  0.49720  0.77796  0.54825  1.0000
  H   H65       1.0  0.53036  0.76098  0.52337  1.0000
  C   C92       1.0  0.54310  0.89840  0.36560  1.0000
  H   H66       1.0  0.56552  0.92443  0.34655  1.0000
  C   C93       1.0  0.13912  0.68283  0.36030  1.0000
  C   C94       1.0  0.21278  0.75311  0.33832  1.0000
  C   C95       1.0  0.20543  0.73092  0.41876  1.0000
  C   C96       1.0  0.16835  0.69571  0.42795  1.0000
  H   H67       1.0  0.16302  0.67829  0.48340  1.0000
  C   C97       1.0  0.30392  0.84900  0.35979  1.0000
  N   N21       1.0  0.26699  0.81744  0.37035  1.0000
  H   H68       1.0  0.31418  0.87120  0.40624  1.0000
  C   C98       1.0  0.23606  0.74199  0.48950  1.0000
  H   H69       1.0  0.26277  0.74400  0.46091  1.0000
  H   H70       1.0  0.22618  0.72050  0.54407  1.0000
  H   H71       1.0  0.24339  0.77060  0.51816  1.0000
  C   C99       1.0  0.10551  0.64565  0.36260  1.0000
  H   H72       1.0  0.07954  0.64192  0.34271  1.0000
  C   C100      1.0  0.68386  0.54652  0.36063  1.0000
  C   C101      1.0  0.75412  0.54304  0.33946  1.0000
  C   C102      1.0  0.73198  0.52853  0.42005  1.0000
  C   C103      1.0  0.69679  0.53046  0.42885  1.0000
  H   H73       1.0  0.67940  0.51861  0.48442  1.0000
  C   C104      1.0  0.85027  0.54834  0.36145  1.0000
  N   N22       1.0  0.81855  0.55348  0.37185  1.0000
  H   H74       1.0  0.87253  0.56053  0.40773  1.0000
  C   C105      1.0  0.74311  0.50929  0.49141  1.0000
  H   H75       1.0  0.74511  0.48448  0.46351  1.0000
  H   H76       1.0  0.72166  0.49792  0.54608  1.0000
  H   H77       1.0  0.77173  0.53069  0.51978  1.0000
  C   C106      1.0  0.64672  0.54305  0.36269  1.0000
  H   H78       1.0  0.64299  0.56514  0.34162  1.0000
  C   C107      1.0  0.45839  0.13851  0.36418  1.0000
  C   C108      1.0  0.46181  0.21218  0.34223  1.0000
  C   C109      1.0  0.47711  0.20502  0.42217  1.0000
  C   C110      1.0  0.47520  0.16792  0.43134  1.0000
  H   H79       1.0  0.48762  0.16271  0.48636  1.0000
  C   C111      1.0  0.45763  0.30365  0.36368  1.0000
  N   N23       1.0  0.45216  0.26669  0.37451  1.0000
  H   H80       1.0  0.44605  0.31414  0.41048  1.0000
  C   C112      1.0  0.49714  0.23583  0.49231  1.0000
  H   H81       1.0  0.52171  0.26242  0.46299  1.0000
  H   H82       1.0  0.50903  0.22605  0.54652  1.0000
  H   H83       1.0  0.47610  0.24332  0.52164  1.0000
  C   C113      1.0  0.46192  0.10487  0.36621  1.0000
  H   H84       1.0  0.43954  0.07887  0.34692  1.0000
  C   C114      1.0  0.86574  0.32058  0.36024  1.0000
  C   C115      1.0  0.79212  0.25024  0.33843  1.0000
  C   C116      1.0  0.79960  0.27227  0.41915  1.0000
  C   C117      1.0  0.83667  0.30750  0.42828  1.0000
  H   H85       1.0  0.84210  0.32480  0.48397  1.0000
  C   C118      1.0  0.70126  0.15408  0.35969  1.0000
  N   N24       1.0  0.73812  0.18575  0.37026  1.0000
  H   H86       1.0  0.69115  0.13178  0.40588  1.0000
  C   C119      1.0  0.76914  0.26098  0.49034  1.0000
  H   H87       1.0  0.74233  0.25896  0.46232  1.0000
  H   H88       1.0  0.77910  0.28235  0.54515  1.0000
  H   H89       1.0  0.76193  0.23234  0.51853  1.0000
  C   C120      1.0  0.89937  0.35777  0.36261  1.0000
  H   H90       1.0  0.92520  0.36160  0.34131  1.0000
