data_image0
_chemical_formula_structural       C3NC3NC5NC5NC20H18C4H4C3NC3NC5NC5NC20H18C4H4C3NC3NC5NC5NC20H18C4H4C2H2C3HNH2NC2H2C3HNH2NC2H2C3HNH2NC2H2C3HNH2NC2H2C3HNH2NC2H2C3HNH2NC8H8C8H8C8H8C7H3NH2NC7H3NH2NC7H3NH2NC7H3NH2NC7H3NH2NC7H3NH2N
_chemical_formula_sum              "C216 N36 H150"
_cell_length_a       58.2583
_cell_length_b       58.2583
_cell_length_c       15.0019
_cell_angle_alpha    90.0142
_cell_angle_beta     89.9858
_cell_angle_gamma    120

_space_group_name_H-M_alt    "P 1"
_space_group_IT_number       1

loop_
  _space_group_symop_operation_xyz
  'x, y, z'

loop_
  _atom_site_type_symbol
  _atom_site_label
  _atom_site_symmetry_multiplicity
  _atom_site_fract_x
  _atom_site_fract_y
  _atom_site_fract_z
  _atom_site_occupancy
  C   C1        1.0  0.00677  0.61244  0.32019  1.0000
  C   C2        1.0  0.03407  0.62733  0.32315  1.0000
  C   C3        1.0  0.04416  0.61008  0.31779  1.0000
  N   N1        1.0  0.02266  0.58542  0.31362  1.0000
  C   C4        1.0  0.99956  0.58573  0.31412  1.0000
  C   C5        1.0  0.97310  0.56425  0.30822  1.0000
  C   C6        1.0  0.96571  0.53705  0.30750  1.0000
  N   N2        1.0  0.98175  0.52657  0.31382  1.0000
  C   C7        1.0  0.96795  0.49981  0.31123  1.0000
  C   C8        1.0  0.94130  0.49264  0.30334  1.0000
  C   C9        1.0  0.93992  0.51560  0.30094  1.0000
  C   C10       1.0  0.97809  0.48217  0.31537  1.0000
  C   C11       1.0  0.00548  0.49013  0.31814  1.0000
  N   N3        1.0  0.02698  0.51478  0.31385  1.0000
  C   C12       1.0  0.05008  0.51446  0.31458  1.0000
  C   C13       1.0  0.04287  0.48777  0.32137  1.0000
  C   C14       1.0  0.01557  0.47289  0.32427  1.0000
  C   C15       1.0  0.07653  0.53593  0.30831  1.0000
  C   C16       1.0  0.08393  0.56313  0.30746  1.0000
  N   N4        1.0  0.06789  0.57361  0.31384  1.0000
  C   C17       1.0  0.08169  0.60037  0.31133  1.0000
  C   C18       1.0  0.10835  0.60754  0.30351  1.0000
  C   C19       1.0  0.10972  0.58458  0.30093  1.0000
  C   C20       1.0  0.07156  0.61802  0.31538  1.0000
  C   C21       1.0  0.09027  0.64569  0.31539  1.0000
  C   C22       1.0  0.12815  0.70071  0.31467  1.0000
  C   C23       1.0  0.11393  0.68804  0.23641  1.0000
  C   C24       1.0  0.09531  0.66075  0.23659  1.0000
  C   C25       1.0  0.09717  0.52977  0.29932  1.0000
  C   C26       1.0  0.13972  0.51926  0.27909  1.0000
  C   C27       1.0  0.12661  0.52201  0.20381  1.0000
  C   C28       1.0  0.10560  0.52715  0.21365  1.0000
  C   C29       1.0  0.95939  0.45450  0.31527  1.0000
  C   C30       1.0  0.95450  0.43943  0.23654  1.0000
  C   C31       1.0  0.93595  0.41212  0.23630  1.0000
  C   C32       1.0  0.92168  0.39943  0.31445  1.0000
  C   C33       1.0  0.95246  0.57040  0.29909  1.0000
  C   C34       1.0  0.94406  0.57299  0.21337  1.0000
  C   C35       1.0  0.90987  0.58084  0.27859  1.0000
  C   C36       1.0  0.92304  0.57810  0.20340  1.0000
  H   H1        1.0  0.91723  0.57948  0.14012  1.0000
  H   H2        1.0  0.95292  0.57079  0.15761  1.0000
  H   H3        1.0  0.99444  0.62020  0.32207  1.0000
  H   H4        1.0  0.04456  0.64755  0.32712  1.0000
  H   H5        1.0  0.02368  0.56956  0.30663  1.0000
  H   H6        1.0  0.02596  0.53059  0.30522  1.0000
  H   H7        1.0  0.92275  0.51622  0.29528  1.0000
  H   H8        1.0  0.92530  0.47393  0.29896  1.0000
  H   H9        1.0  0.96436  0.44825  0.17885  1.0000
  H   H10       1.0  0.93266  0.40172  0.17814  1.0000
  H   H11       1.0  0.00508  0.45267  0.32853  1.0000
  H   H12       1.0  0.05520  0.48002  0.32353  1.0000
  H   H13       1.0  0.12434  0.62625  0.29906  1.0000
  H   H14       1.0  0.12689  0.58395  0.29528  1.0000
  H   H15       1.0  0.09675  0.52934  0.15783  1.0000
  H   H16       1.0  0.13242  0.52059  0.14058  1.0000
  H   H17       1.0  0.08551  0.65193  0.17880  1.0000
  H   H18       1.0  0.11735  0.69843  0.17818  1.0000
  C   C37       1.0  0.16126  0.51545  0.26651  1.0000
  C   C38       1.0  0.90304  0.37278  0.31271  1.0000
  C   C39       1.0  0.88833  0.58464  0.26585  1.0000
  C   C40       1.0  0.14691  0.72732  0.31298  1.0000
  H   H19       1.0  0.16898  0.51802  0.20570  1.0000
  H   H20       1.0  0.90774  0.36010  0.28553  1.0000
  H   H21       1.0  0.88090  0.58246  0.20475  1.0000
  H   H22       1.0  0.14233  0.74007  0.28574  1.0000
  C   C41       1.0  0.46166  0.46817  0.32135  1.0000
  C   C42       1.0  0.44678  0.48059  0.32445  1.0000
  C   C43       1.0  0.46402  0.50792  0.31817  1.0000
  N   N5        1.0  0.48868  0.51108  0.31381  1.0000
  C   C44       1.0  0.48836  0.48766  0.31453  1.0000
  C   C45       1.0  0.50982  0.48268  0.30800  1.0000
  C   C46       1.0  0.53702  0.50248  0.30703  1.0000
  N   N6        1.0  0.54750  0.52899  0.31367  1.0000
  C   C47       1.0  0.57426  0.54196  0.31097  1.0000
  C   C48       1.0  0.58142  0.52248  0.30274  1.0000
  C   C49       1.0  0.55847  0.49814  0.30018  1.0000
  C   C50       1.0  0.59190  0.56973  0.31531  1.0000
  C   C51       1.0  0.58395  0.58917  0.31817  1.0000
  N   N7        1.0  0.55929  0.58602  0.31394  1.0000
  C   C52       1.0  0.55961  0.60944  0.31466  1.0000
  C   C53       1.0  0.58631  0.62893  0.32123  1.0000
  C   C54       1.0  0.60119  0.61651  0.32427  1.0000
  C   C55       1.0  0.53814  0.61442  0.30844  1.0000
  C   C56       1.0  0.51094  0.59461  0.30737  1.0000
  N   N8        1.0  0.50046  0.56810  0.31377  1.0000
  C   C57       1.0  0.47370  0.55513  0.31094  1.0000
  C   C58       1.0  0.46655  0.57462  0.30281  1.0000
  C   C59       1.0  0.48950  0.59895  0.30052  1.0000
  C   C60       1.0  0.45606  0.52736  0.31516  1.0000
  C   C61       1.0  0.42840  0.51840  0.31517  1.0000
  C   C62       1.0  0.37337  0.50122  0.31444  1.0000
  C   C63       1.0  0.38602  0.49959  0.23628  1.0000
  C   C64       1.0  0.41331  0.50825  0.23647  1.0000
  C   C65       1.0  0.54431  0.64122  0.29935  1.0000
  C   C66       1.0  0.55489  0.69429  0.27899  1.0000
  C   C67       1.0  0.55211  0.67840  0.20375  1.0000
  C   C68       1.0  0.54692  0.65224  0.21365  1.0000
  C   C69       1.0  0.61957  0.57870  0.31522  1.0000
  C   C70       1.0  0.63464  0.58887  0.23650  1.0000
  C   C71       1.0  0.66195  0.59762  0.23628  1.0000
  C   C72       1.0  0.67464  0.59605  0.31443  1.0000
  C   C73       1.0  0.50366  0.45588  0.29887  1.0000
  C   C74       1.0  0.50101  0.44485  0.21315  1.0000
  C   C75       1.0  0.49326  0.40286  0.27837  1.0000
  C   C76       1.0  0.49592  0.41873  0.20318  1.0000
  H   H23       1.0  0.49450  0.41153  0.13991  1.0000
  H   H24       1.0  0.50316  0.45590  0.15739  1.0000
  H   H25       1.0  0.45391  0.44809  0.32329  1.0000
  H   H26       1.0  0.42656  0.47086  0.32829  1.0000
  H   H27       1.0  0.50447  0.52790  0.30497  1.0000
  H   H28       1.0  0.54347  0.56917  0.30598  1.0000
  H   H29       1.0  0.55784  0.48036  0.29434  1.0000
  H   H30       1.0  0.60013  0.52520  0.29823  1.0000
  H   H31       1.0  0.62583  0.58992  0.17881  1.0000
  H   H32       1.0  0.67236  0.60474  0.17814  1.0000
  H   H33       1.0  0.62142  0.62625  0.32807  1.0000
  H   H34       1.0  0.59407  0.64901  0.32321  1.0000
  H   H35       1.0  0.44783  0.57190  0.29829  1.0000
  H   H36       1.0  0.49013  0.61675  0.29480  1.0000
  H   H37       1.0  0.54472  0.64118  0.15787  1.0000
  H   H38       1.0  0.55352  0.68560  0.14050  1.0000
  H   H39       1.0  0.42211  0.50719  0.17874  1.0000
  H   H40       1.0  0.37561  0.49252  0.17812  1.0000
  C   C77       1.0  0.55877  0.71967  0.26632  1.0000
  C   C78       1.0  0.70129  0.60405  0.31271  1.0000
  C   C79       1.0  0.48950  0.37753  0.26563  1.0000
  C   C80       1.0  0.34675  0.49338  0.31275  1.0000
  H   H41       1.0  0.55627  0.72483  0.20545  1.0000
  H   H42       1.0  0.71397  0.62143  0.28558  1.0000
  H   H43       1.0  0.49167  0.37228  0.20451  1.0000
  H   H44       1.0  0.33400  0.47603  0.28557  1.0000
  C   C81       1.0  0.60592  0.06732  0.32020  1.0000
  C   C82       1.0  0.59351  0.04002  0.32325  1.0000
  C   C83       1.0  0.56617  0.02993  0.31757  1.0000
  N   N9        1.0  0.56301  0.05143  0.31346  1.0000
  C   C84       1.0  0.58643  0.07453  0.31403  1.0000
  C   C85       1.0  0.59141  0.10098  0.30805  1.0000
  C   C86       1.0  0.57160  0.10838  0.30729  1.0000
  N   N10       1.0  0.54508  0.09234  0.31359  1.0000
  C   C87       1.0  0.53212  0.10614  0.31114  1.0000
  C   C88       1.0  0.55161  0.13280  0.30338  1.0000
  C   C89       1.0  0.57594  0.13417  0.30088  1.0000
  C   C90       1.0  0.50434  0.09600  0.31521  1.0000
  C   C91       1.0  0.48489  0.06861  0.31767  1.0000
  N   N11       1.0  0.48805  0.04711  0.31349  1.0000
  C   C92       1.0  0.46463  0.02400  0.31403  1.0000
  C   C93       1.0  0.44513  0.03121  0.32009  1.0000
  C   C94       1.0  0.45754  0.05851  0.32311  1.0000
  C   C95       1.0  0.45965  0.99754  0.30815  1.0000
  C   C96       1.0  0.47946  0.99015  0.30735  1.0000
  N   N12       1.0  0.50598  0.00619  0.31351  1.0000
  C   C97       1.0  0.51894  0.99239  0.31095  1.0000
  C   C98       1.0  0.49945  0.96574  0.30321  1.0000
  C   C99       1.0  0.47511  0.96435  0.30091  1.0000
  C   C100      1.0  0.54672  0.00253  0.31497  1.0000
  C   C101      1.0  0.55568  0.98382  0.31491  1.0000
  C   C102      1.0  0.57282  0.94594  0.31400  1.0000
  C   C103      1.0  0.57438  0.96018  0.23580  1.0000
  C   C104      1.0  0.56573  0.97881  0.23609  1.0000
  C   C105      1.0  0.43286  0.97690  0.29913  1.0000
  C   C106      1.0  0.37978  0.93438  0.27891  1.0000
  C   C107      1.0  0.39568  0.94744  0.20363  1.0000
  C   C108      1.0  0.42184  0.96844  0.21346  1.0000
  C   C109      1.0  0.49537  0.11471  0.31510  1.0000
  C   C110      1.0  0.48531  0.11968  0.23629  1.0000
  C   C111      1.0  0.47653  0.13821  0.23607  1.0000
  C   C112      1.0  0.47801  0.15241  0.31431  1.0000
  C   C113      1.0  0.61820  0.12163  0.29893  1.0000
  C   C114      1.0  0.62921  0.13004  0.21322  1.0000
  C   C115      1.0  0.67123  0.16422  0.27850  1.0000
  C   C116      1.0  0.65534  0.15107  0.20328  1.0000
  H   H45       1.0  0.66253  0.15688  0.14002  1.0000
  H   H46       1.0  0.61815  0.12118  0.15745  1.0000
  H   H47       1.0  0.62601  0.07965  0.32204  1.0000
  H   H48       1.0  0.60324  0.02953  0.32691  1.0000
  H   H49       1.0  0.54615  0.05040  0.30587  1.0000
  H   H50       1.0  0.50492  0.04812  0.30647  1.0000
  H   H51       1.0  0.59374  0.15135  0.29532  1.0000
  H   H52       1.0  0.54889  0.14879  0.29912  1.0000
  H   H53       1.0  0.48434  0.10987  0.17852  1.0000
  H   H54       1.0  0.46950  0.14157  0.17785  1.0000
  H   H55       1.0  0.44780  0.06900  0.32691  1.0000
  H   H56       1.0  0.42505  0.01889  0.32192  1.0000
  H   H57       1.0  0.50216  0.94974  0.29899  1.0000
  H   H58       1.0  0.45732  0.94718  0.29544  1.0000
  H   H59       1.0  0.43290  0.97723  0.15765  1.0000
  H   H60       1.0  0.38848  0.94159  0.14040  1.0000
  H   H61       1.0  0.56673  0.98863  0.17834  1.0000
  H   H62       1.0  0.58138  0.95679  0.17757  1.0000
  C   C117      1.0  0.35441  0.91286  0.26635  1.0000
  C   C118      1.0  0.46999  0.17105  0.31263  1.0000
  C   C119      1.0  0.69657  0.18578  0.26579  1.0000
  C   C120      1.0  0.58063  0.92715  0.31218  1.0000
  H   H63       1.0  0.34926  0.90516  0.20553  1.0000
  H   H64       1.0  0.45265  0.16636  0.28520  1.0000
  H   H65       1.0  0.70184  0.19319  0.20468  1.0000
  H   H66       1.0  0.59802  0.93177  0.28533  1.0000
  C   C121      1.0  0.22662  0.49849  0.26365  1.0000
  C   C122      1.0  0.20313  0.49957  0.25791  1.0000
  H   H67       1.0  0.23366  0.49417  0.20731  1.0000
  H   H68       1.0  0.19354  0.49563  0.19797  1.0000
  C   C123      1.0  0.31536  0.50741  0.33921  1.0000
  C   C124      1.0  0.31418  0.53079  0.32707  1.0000
  C   C125      1.0  0.28979  0.53063  0.32769  1.0000
  H   H69       1.0  0.33144  0.54826  0.31625  1.0000
  N   N13       1.0  0.29007  0.55384  0.31334  1.0000
  H   H70       1.0  0.27390  0.55480  0.31236  1.0000
  H   H71       1.0  0.30657  0.57031  0.30266  1.0000
  N   N14       1.0  0.33914  0.50959  0.33792  1.0000
  C   C126      1.0  0.57563  0.80196  0.26357  1.0000
  C   C127      1.0  0.57458  0.77740  0.25783  1.0000
  H   H72       1.0  0.57997  0.81333  0.20724  1.0000
  H   H73       1.0  0.57852  0.77176  0.19788  1.0000
  C   C128      1.0  0.56662  0.88174  0.33891  1.0000
  C   C129      1.0  0.54325  0.85717  0.32683  1.0000
  C   C130      1.0  0.54343  0.83296  0.32750  1.0000
  H   H74       1.0  0.52578  0.85695  0.31591  1.0000
  N   N15       1.0  0.52023  0.81001  0.31313  1.0000
  H   H75       1.0  0.51928  0.79289  0.31215  1.0000
  H   H76       1.0  0.50376  0.81003  0.30238  1.0000
  N   N16       1.0  0.56443  0.90334  0.33745  1.0000
  C   C131      1.0  0.27212  0.84745  0.26373  1.0000
  C   C132      1.0  0.29668  0.87095  0.25793  1.0000
  H   H77       1.0  0.26075  0.84038  0.20742  1.0000
  H   H78       1.0  0.30232  0.88051  0.19795  1.0000
  C   C133      1.0  0.19233  0.75871  0.33950  1.0000
  C   C134      1.0  0.21689  0.75989  0.32733  1.0000
  C   C135      1.0  0.24111  0.78428  0.32789  1.0000
  H   H79       1.0  0.21710  0.74263  0.31650  1.0000
  N   N17       1.0  0.26405  0.78401  0.31347  1.0000
  H   H80       1.0  0.28118  0.80018  0.31245  1.0000
  H   H81       1.0  0.26402  0.76751  0.30280  1.0000
  N   N18       1.0  0.17072  0.73492  0.33822  1.0000
  C   C136      1.0  0.82210  0.60036  0.26373  1.0000
  C   C137      1.0  0.84574  0.59957  0.25781  1.0000
  H   H82       1.0  0.81497  0.60464  0.20752  1.0000
  H   H83       1.0  0.85534  0.60367  0.19786  1.0000
  C   C138      1.0  0.73295  0.59040  0.33961  1.0000
  C   C139      1.0  0.73439  0.56718  0.32729  1.0000
  C   C140      1.0  0.75890  0.56759  0.32784  1.0000
  H   H84       1.0  0.71722  0.54962  0.31637  1.0000
  N   N19       1.0  0.75888  0.54451  0.31329  1.0000
  H   H85       1.0  0.77514  0.54373  0.31223  1.0000
  H   H86       1.0  0.74246  0.52796  0.30254  1.0000
  N   N20       1.0  0.70907  0.58800  0.33818  1.0000
  C   C141      1.0  0.47372  0.29556  0.26351  1.0000
  C   C142      1.0  0.47454  0.32000  0.25756  1.0000
  H   H87       1.0  0.46945  0.28415  0.20729  1.0000
  H   H88       1.0  0.47047  0.32551  0.19759  1.0000
  C   C143      1.0  0.48363  0.21635  0.33946  1.0000
  C   C144      1.0  0.50686  0.24102  0.32716  1.0000
  C   C145      1.0  0.50644  0.26511  0.32768  1.0000
  H   H89       1.0  0.52442  0.24141  0.31627  1.0000
  N   N21       1.0  0.52953  0.28817  0.31314  1.0000
  H   H90       1.0  0.53031  0.30521  0.31207  1.0000
  H   H91       1.0  0.54608  0.28831  0.30242  1.0000
  N   N22       1.0  0.48603  0.19488  0.33815  1.0000
  C   C146      1.0  0.77854  0.25197  0.26378  1.0000
  C   C147      1.0  0.75411  0.22833  0.25783  1.0000
  H   H92       1.0  0.78995  0.25910  0.20757  1.0000
  H   H93       1.0  0.74860  0.21876  0.19784  1.0000
  C   C148      1.0  0.85773  0.34111  0.33960  1.0000
  C   C149      1.0  0.83305  0.33966  0.32737  1.0000
  C   C150      1.0  0.80897  0.31515  0.32791  1.0000
  H   H94       1.0  0.83266  0.35683  0.31641  1.0000
  N   N23       1.0  0.78590  0.31517  0.31336  1.0000
  H   H95       1.0  0.76887  0.29890  0.31226  1.0000
  H   H96       1.0  0.78577  0.33158  0.30258  1.0000
  N   N24       1.0  0.87920  0.36499  0.33820  1.0000
  C   C151      1.0  0.10419  0.65839  0.39398  1.0000
  C   C152      1.0  0.12301  0.68561  0.39354  1.0000
  C   C153      1.0  0.10990  0.52687  0.37494  1.0000
  C   C154      1.0  0.13089  0.52166  0.36486  1.0000
  C   C155      1.0  0.92665  0.41453  0.39325  1.0000
  C   C156      1.0  0.94539  0.44178  0.39374  1.0000
  C   C157      1.0  0.93970  0.57332  0.37463  1.0000
  C   C158      1.0  0.91871  0.57851  0.36442  1.0000
  H   H97       1.0  0.90963  0.58007  0.42066  1.0000
  H   H98       1.0  0.94540  0.57135  0.43740  1.0000
  H   H99       1.0  0.94865  0.45230  0.45158  1.0000
  H   H100      1.0  0.91670  0.40582  0.45096  1.0000
  H   H101      1.0  0.10419  0.52886  0.43766  1.0000
  H   H102      1.0  0.13994  0.52010  0.42115  1.0000
  H   H103      1.0  0.13293  0.69430  0.45132  1.0000
  H   H104      1.0  0.10085  0.64786  0.45184  1.0000
  C   C159      1.0  0.41571  0.51971  0.39368  1.0000
  C   C160      1.0  0.38848  0.51130  0.39322  1.0000
  C   C161      1.0  0.54724  0.65688  0.37493  1.0000
  C   C162      1.0  0.55250  0.68309  0.36479  1.0000
  C   C163      1.0  0.65953  0.58592  0.39321  1.0000
  C   C164      1.0  0.63228  0.57742  0.39370  1.0000
  C   C165      1.0  0.50083  0.44025  0.37441  1.0000
  C   C166      1.0  0.49566  0.41406  0.36419  1.0000
  H   H105      1.0  0.49415  0.40345  0.42043  1.0000
  H   H106      1.0  0.50284  0.44793  0.43717  1.0000
  H   H107      1.0  0.62175  0.57015  0.45151  1.0000
  H   H108      1.0  0.66823  0.58468  0.45093  1.0000
  H   H109      1.0  0.54528  0.64922  0.43768  1.0000
  H   H110      1.0  0.55410  0.69374  0.42105  1.0000
  H   H111      1.0  0.37981  0.51260  0.45094  1.0000
  H   H112      1.0  0.42625  0.52698  0.45146  1.0000
  C   C167      1.0  0.55444  0.96987  0.39344  1.0000
  C   C168      1.0  0.56283  0.95104  0.39291  1.0000
  C   C169      1.0  0.41719  0.96423  0.37475  1.0000
  C   C170      1.0  0.39098  0.94327  0.36469  1.0000
  C   C171      1.0  0.48804  0.14736  0.39318  1.0000
  C   C172      1.0  0.49655  0.12863  0.39366  1.0000
  C   C173      1.0  0.63385  0.13438  0.37449  1.0000
  C   C174      1.0  0.66004  0.15539  0.36431  1.0000
  H   H113      1.0  0.67067  0.16445  0.42057  1.0000
  H   H114      1.0  0.62618  0.12868  0.43725  1.0000
  H   H115      1.0  0.50374  0.12532  0.45156  1.0000
  H   H116      1.0  0.48920  0.15726  0.45097  1.0000
  H   H117      1.0  0.42486  0.96997  0.43749  1.0000
  H   H118      1.0  0.38034  0.93426  0.42098  1.0000
  H   H119      1.0  0.56158  0.94110  0.45064  1.0000
  H   H120      1.0  0.54724  0.97319  0.45132  1.0000
  C   C175      1.0  0.19344  0.50680  0.33280  1.0000
  C   C176      1.0  0.20713  0.51162  0.41439  1.0000
  C   C177      1.0  0.23094  0.51077  0.42179  1.0000
  C   C178      1.0  0.24086  0.50440  0.34456  1.0000
  C   C179      1.0  0.26603  0.50613  0.34292  1.0000
  C   C180      1.0  0.26720  0.48273  0.35642  1.0000
  C   C181      1.0  0.29162  0.48337  0.35470  1.0000
  H   H121      1.0  0.25027  0.46503  0.36789  1.0000
  H   H122      1.0  0.29197  0.46622  0.36561  1.0000
  H   H123      1.0  0.20013  0.51683  0.46887  1.0000
  N   N25       1.0  0.24363  0.51645  0.50182  1.0000
  H   H124      1.0  0.23650  0.52075  0.55382  1.0000
  H   H125      1.0  0.25987  0.51590  0.51034  1.0000
  N   N26       1.0  0.17246  0.51015  0.33089  1.0000
  C   C182      1.0  0.56731  0.76048  0.33267  1.0000
  C   C183      1.0  0.56244  0.76933  0.41423  1.0000
  C   C184      1.0  0.56328  0.79399  0.42164  1.0000
  C   C185      1.0  0.56969  0.81029  0.34445  1.0000
  C   C186      1.0  0.56794  0.83371  0.34279  1.0000
  C   C187      1.0  0.59132  0.85829  0.35628  1.0000
  C   C188      1.0  0.59067  0.88207  0.35445  1.0000
  H   H126      1.0  0.60903  0.85908  0.36777  1.0000
  H   H127      1.0  0.60782  0.89958  0.36535  1.0000
  H   H128      1.0  0.55722  0.75712  0.46870  1.0000
  N   N27       1.0  0.55757  0.80098  0.50165  1.0000
  H   H129      1.0  0.55325  0.78955  0.55363  1.0000
  H   H130      1.0  0.55812  0.81778  0.51018  1.0000
  N   N28       1.0  0.56396  0.73615  0.33075  1.0000
  C   C189      1.0  0.31360  0.88066  0.33276  1.0000
  C   C190      1.0  0.30476  0.86697  0.41437  1.0000
  C   C191      1.0  0.28010  0.84316  0.42185  1.0000
  C   C192      1.0  0.26380  0.83322  0.34467  1.0000
  C   C193      1.0  0.24037  0.80805  0.34311  1.0000
  C   C194      1.0  0.21580  0.80687  0.35666  1.0000
  C   C195      1.0  0.19202  0.78245  0.35497  1.0000
  H   H131      1.0  0.21503  0.82380  0.36812  1.0000
  H   H132      1.0  0.17452  0.78210  0.36593  1.0000
  H   H133      1.0  0.31697  0.87399  0.46883  1.0000
  N   N29       1.0  0.27312  0.83048  0.50190  1.0000
  H   H134      1.0  0.28456  0.83763  0.55387  1.0000
  H   H135      1.0  0.25632  0.81424  0.51048  1.0000
  N   N30       1.0  0.33793  0.90164  0.33078  1.0000
  C   C196      1.0  0.85556  0.59242  0.33250  1.0000
  C   C197      1.0  0.84181  0.58734  0.41407  1.0000
  C   C198      1.0  0.81786  0.58791  0.42167  1.0000
  C   C199      1.0  0.80782  0.59421  0.34462  1.0000
  C   C200      1.0  0.78253  0.59221  0.34316  1.0000
  C   C201      1.0  0.78110  0.61546  0.35682  1.0000
  C   C202      1.0  0.75656  0.61457  0.35516  1.0000
  H   H136      1.0  0.79793  0.63325  0.36833  1.0000
  H   H137      1.0  0.75603  0.63163  0.36616  1.0000
  H   H138      1.0  0.84891  0.58219  0.46843  1.0000
  N   N31       1.0  0.80515  0.58202  0.50170  1.0000
  H   H139      1.0  0.81240  0.57784  0.55364  1.0000
  H   H140      1.0  0.78884  0.58245  0.51041  1.0000
  N   N32       1.0  0.87668  0.58929  0.33043  1.0000
  C   C203      1.0  0.48169  0.33698  0.33225  1.0000
  C   C204      1.0  0.48671  0.32830  0.41387  1.0000
  C   C205      1.0  0.48613  0.30377  0.42149  1.0000
  C   C206      1.0  0.47983  0.28742  0.34444  1.0000
  C   C207      1.0  0.48183  0.26413  0.34298  1.0000
  C   C208      1.0  0.45857  0.23945  0.35665  1.0000
  C   C209      1.0  0.45947  0.21580  0.35504  1.0000
  H   H141      1.0  0.44079  0.23850  0.36815  1.0000
  H   H142      1.0  0.44241  0.19821  0.36603  1.0000
  H   H143      1.0  0.49187  0.34055  0.46822  1.0000
  N   N33       1.0  0.49199  0.29694  0.50154  1.0000
  H   H144      1.0  0.49623  0.30841  0.55342  1.0000
  H   H145      1.0  0.49161  0.28024  0.51021  1.0000
  N   N34       1.0  0.48482  0.36123  0.33018  1.0000
  C   C210      1.0  0.73711  0.21852  0.33248  1.0000
  C   C211      1.0  0.74578  0.23226  0.41408  1.0000
  C   C212      1.0  0.77031  0.25620  0.42172  1.0000
  C   C213      1.0  0.78668  0.26623  0.34470  1.0000
  C   C214      1.0  0.80996  0.29152  0.34323  1.0000
  C   C215      1.0  0.83464  0.29296  0.35689  1.0000
  C   C216      1.0  0.85829  0.31750  0.35519  1.0000
  H   H146      1.0  0.83560  0.27613  0.36840  1.0000
  H   H147      1.0  0.87588  0.31804  0.36619  1.0000
  H   H148      1.0  0.73352  0.22517  0.46843  1.0000
  N   N35       1.0  0.77712  0.26889  0.50176  1.0000
  H   H149      1.0  0.76565  0.26169  0.55363  1.0000
  H   H150      1.0  0.79384  0.28522  0.51045  1.0000
  N   N36       1.0  0.71286  0.19742  0.33038  1.0000
