data_image0
_chemical_formula_structural       C15N2O4CHC3N2O4CHC3H2CHC3H2CHC3N2O4CHC3N2O4CHC3H2CHC3H2CHC3N2O4CHC3N2O4CHC3N2O4CHC3N2O4CHC3H2CHC3H2CHC3N2O4CHC3N2O4CHC3H2CHC3H2CHC3N2O4CHC3N2O4CHC3H2CHC3H2CHC3N2O4CHC3N2O4CHNCNCN5CNCN5CNCN5CNCN5CNCN5CNCN5CNCN5CNCN5CNCN5CNCN4CNCNCN4CNCNCN5CNCN5CNCN4CNCNCN4CNCNCN4C3H2CHC3H2CHC3N2O4CHC3N2O4CHC3H2CHC3H2CHC3N2O4CHC3N2O4CHC3H2CHC3H2CHC3H2CHC3H2CHC3N2O4CHC3N2O4CHC3H2CHC3H2CHC3N2O4CHC3N2O4CHC3H2CHC3H2CHC3N2O4CHC3N2O4CHC3H2CHC3H2CH
_chemical_formula_sum              "C240 N144 O96 H96"
_cell_length_a       67.0883
_cell_length_b       52.6074
_cell_length_c       14.6219
_cell_angle_alpha    90
_cell_angle_beta     90
_cell_angle_gamma    90

_space_group_name_H-M_alt    "P 1"
_space_group_IT_number       1

loop_
  _space_group_symop_operation_xyz
  'x, y, z'

loop_
  _atom_site_type_symbol
  _atom_site_label
  _atom_site_symmetry_multiplicity
  _atom_site_fract_x
  _atom_site_fract_y
  _atom_site_fract_z
  _atom_site_occupancy
  C   C1        1.0  0.03137  0.14800  0.36147  1.0000
  C   C2        1.0  0.99486  0.87789  0.36024  1.0000
  C   C3        1.0  0.53133  0.64799  0.36140  1.0000
  C   C4        1.0  0.49490  0.37789  0.36010  1.0000
  C   C5        1.0  0.40779  0.98977  0.35631  1.0000
  C   C6        1.0  0.61780  0.03615  0.35422  1.0000
  C   C7        1.0  0.90780  0.48972  0.35629  1.0000
  C   C8        1.0  0.11779  0.53619  0.35435  1.0000
  C   C9        1.0  0.18803  0.27543  0.36003  1.0000
  C   C10       1.0  0.83804  0.75076  0.35975  1.0000
  C   C11       1.0  0.68803  0.77537  0.36082  1.0000
  C   C12       1.0  0.33804  0.25081  0.36004  1.0000
  C   C13       1.0  0.01015  0.98562  0.35879  1.0000
  C   C14       1.0  0.00748  0.00128  0.28007  1.0000
  C   C15       1.0  0.01069  0.02833  0.28480  1.0000
  N   N1        1.0  0.00195  0.98840  0.19866  1.0000
  N   N2        1.0  0.00889  0.04478  0.20840  1.0000
  O   O1        1.0  0.01487  0.98947  0.13675  1.0000
  O   O2        1.0  0.99161  0.04580  0.17587  1.0000
  O   O3        1.0  0.98515  0.99466  0.16851  1.0000
  O   O4        1.0  0.02143  0.04056  0.14660  1.0000
  C   C16       1.0  0.00493  0.95965  0.35913  1.0000
  H   H1        1.0  0.99061  0.95556  0.34980  1.0000
  C   C17       1.0  0.51017  0.48561  0.35895  1.0000
  C   C18       1.0  0.50763  0.50121  0.28000  1.0000
  C   C19       1.0  0.51082  0.52827  0.28463  1.0000
  N   N3        1.0  0.50225  0.48828  0.19851  1.0000
  N   N4        1.0  0.50915  0.54467  0.20804  1.0000
  O   O5        1.0  0.51527  0.48932  0.13705  1.0000
  O   O6        1.0  0.49193  0.54566  0.17482  1.0000
  O   O7        1.0  0.48550  0.49450  0.16771  1.0000
  O   O8        1.0  0.52181  0.54043  0.14678  1.0000
  C   C20       1.0  0.50494  0.45964  0.35937  1.0000
  H   H2        1.0  0.49061  0.45556  0.35030  1.0000
  C   C21       1.0  0.07304  0.19355  0.35225  1.0000
  C   C22       1.0  0.07994  0.20531  0.27129  1.0000
  C   C23       1.0  0.09654  0.22166  0.27168  1.0000
  H   H3        1.0  0.10014  0.23083  0.21212  1.0000
  H   H4        1.0  0.07211  0.20337  0.21152  1.0000
  C   C24       1.0  0.05385  0.18297  0.35065  1.0000
  H   H5        1.0  0.04280  0.19516  0.33875  1.0000
  C   C25       1.0  0.95309  0.83245  0.35058  1.0000
  C   C26       1.0  0.94625  0.82062  0.26969  1.0000
  C   C27       1.0  0.92964  0.80429  0.27010  1.0000
  H   H6        1.0  0.92604  0.79509  0.21060  1.0000
  H   H7        1.0  0.95410  0.82253  0.20999  1.0000
  C   C28       1.0  0.97231  0.84300  0.34935  1.0000
  H   H8        1.0  0.98335  0.83071  0.33870  1.0000
  C   C29       1.0  0.91845  0.22482  0.35197  1.0000
  C   C30       1.0  0.93044  0.21888  0.27437  1.0000
  C   C31       1.0  0.94506  0.19892  0.27891  1.0000
  N   N5        1.0  0.92673  0.23344  0.19442  1.0000
  N   N6        1.0  0.95715  0.19166  0.20376  1.0000
  O   O9        1.0  0.91999  0.22067  0.12889  1.0000
  O   O10       1.0  0.96881  0.20877  0.17711  1.0000
  O   O11       1.0  0.94123  0.24677  0.16934  1.0000
  O   O12       1.0  0.94752  0.18261  0.13783  1.0000
  C   C32       1.0  0.90569  0.24595  0.35298  1.0000
  H   H9        1.0  0.91197  0.26289  0.34394  1.0000
  C   C33       1.0  0.10770  0.80084  0.35675  1.0000
  C   C34       1.0  0.09636  0.80756  0.27769  1.0000
  C   C35       1.0  0.08181  0.82746  0.28200  1.0000
  N   N7        1.0  0.09911  0.79543  0.19192  1.0000
  N   N8        1.0  0.07050  0.83495  0.20451  1.0000
  O   O13       1.0  0.11658  0.79802  0.16226  1.0000
  O   O14       1.0  0.05978  0.81721  0.17459  1.0000
  O   O15       1.0  0.09465  0.77225  0.19380  1.0000
  O   O16       1.0  0.08130  0.84336  0.14115  1.0000
  C   C36       1.0  0.12039  0.77973  0.35824  1.0000
  H   H10       1.0  0.11397  0.76270  0.35634  1.0000
  C   C37       1.0  0.57300  0.69354  0.35213  1.0000
  C   C38       1.0  0.57994  0.70535  0.27132  1.0000
  C   C39       1.0  0.59654  0.72169  0.27198  1.0000
  H   H11       1.0  0.60017  0.73090  0.21252  1.0000
  H   H12       1.0  0.57214  0.70345  0.21146  1.0000
  C   C40       1.0  0.55381  0.68294  0.35025  1.0000
  H   H13       1.0  0.54278  0.69511  0.33777  1.0000
  C   C41       1.0  0.45312  0.33245  0.35036  1.0000
  C   C42       1.0  0.44624  0.32057  0.26962  1.0000
  C   C43       1.0  0.42963  0.30425  0.27030  1.0000
  H   H14       1.0  0.42601  0.29500  0.21092  1.0000
  H   H15       1.0  0.45407  0.32244  0.20984  1.0000
  C   C44       1.0  0.47233  0.34301  0.34883  1.0000
  H   H16       1.0  0.48337  0.33076  0.33755  1.0000
  C   C45       1.0  0.41841  0.72483  0.35154  1.0000
  C   C46       1.0  0.43041  0.71889  0.27399  1.0000
  C   C47       1.0  0.44503  0.69893  0.27858  1.0000
  N   N9        1.0  0.42671  0.73345  0.19402  1.0000
  N   N10       1.0  0.45713  0.69167  0.20346  1.0000
  O   O17       1.0  0.41998  0.72068  0.12847  1.0000
  O   O18       1.0  0.46879  0.70878  0.17684  1.0000
  O   O19       1.0  0.44122  0.74678  0.16897  1.0000
  O   O20       1.0  0.44751  0.68261  0.13751  1.0000
  C   C48       1.0  0.40565  0.74596  0.35250  1.0000
  H   H17       1.0  0.41192  0.76291  0.34355  1.0000
  C   C49       1.0  0.60774  0.30083  0.35609  1.0000
  C   C50       1.0  0.59638  0.30756  0.27708  1.0000
  C   C51       1.0  0.58183  0.32745  0.28145  1.0000
  N   N11       1.0  0.59912  0.29543  0.19130  1.0000
  N   N12       1.0  0.57051  0.33495  0.20400  1.0000
  O   O21       1.0  0.61658  0.29801  0.16157  1.0000
  O   O22       1.0  0.55979  0.31722  0.17409  1.0000
  O   O23       1.0  0.59465  0.27225  0.19319  1.0000
  O   O24       1.0  0.58130  0.34336  0.14062  1.0000
  C   C52       1.0  0.62042  0.27971  0.35754  1.0000
  H   H18       1.0  0.61400  0.26269  0.35588  1.0000
  C   C53       1.0  0.38518  0.15522  0.36912  1.0000
  C   C54       1.0  0.38440  0.14106  0.28630  1.0000
  C   C55       1.0  0.39046  0.11498  0.28471  1.0000
  N   N13       1.0  0.37850  0.15426  0.20606  1.0000
  N   N14       1.0  0.39049  0.10251  0.19865  1.0000
  O   O25       1.0  0.36324  0.14464  0.17032  1.0000
  O   O26       1.0  0.37934  0.08333  0.19807  1.0000
  O   O27       1.0  0.39222  0.15537  0.14769  1.0000
  O   O28       1.0  0.40768  0.09627  0.17302  1.0000
  C   C56       1.0  0.38332  0.18163  0.37172  1.0000
  H   H19       1.0  0.39547  0.19159  0.38732  1.0000
  C   C57       1.0  0.64071  0.87082  0.36883  1.0000
  C   C58       1.0  0.64130  0.88485  0.28569  1.0000
  C   C59       1.0  0.63519  0.91092  0.28390  1.0000
  N   N15       1.0  0.64705  0.87156  0.20544  1.0000
  N   N16       1.0  0.63497  0.92326  0.19761  1.0000
  O   O29       1.0  0.66223  0.88118  0.16884  1.0000
  O   O30       1.0  0.64606  0.94250  0.19628  1.0000
  O   O31       1.0  0.63321  0.87033  0.14769  1.0000
  O   O32       1.0  0.61771  0.92939  0.17253  1.0000
  C   C60       1.0  0.64264  0.84442  0.37174  1.0000
  H   H20       1.0  0.63054  0.83443  0.38782  1.0000
  C   C61       1.0  0.63097  0.10328  0.34073  1.0000
  C   C62       1.0  0.63496  0.11897  0.26423  1.0000
  C   C63       1.0  0.64023  0.14467  0.27460  1.0000
  H   H21       1.0  0.64183  0.15560  0.21708  1.0000
  H   H22       1.0  0.63295  0.11219  0.19919  1.0000
  C   C64       1.0  0.62154  0.08000  0.32473  1.0000
  H   H23       1.0  0.61107  0.07985  0.27635  1.0000
  C   C65       1.0  0.39466  0.92263  0.34166  1.0000
  C   C66       1.0  0.39069  0.90695  0.26509  1.0000
  C   C67       1.0  0.38553  0.88121  0.27527  1.0000
  H   H24       1.0  0.38400  0.87030  0.21767  1.0000
  H   H25       1.0  0.39268  0.91377  0.20009  1.0000
  C   C68       1.0  0.40397  0.94599  0.32570  1.0000
  H   H26       1.0  0.41451  0.94620  0.27763  1.0000
  C   C69       1.0  0.88518  0.65517  0.36859  1.0000
  C   C70       1.0  0.88441  0.64103  0.28572  1.0000
  C   C71       1.0  0.89047  0.61495  0.28409  1.0000
  N   N17       1.0  0.87853  0.65424  0.20550  1.0000
  N   N18       1.0  0.89051  0.60250  0.19800  1.0000
  O   O33       1.0  0.86326  0.64463  0.16968  1.0000
  O   O34       1.0  0.87937  0.58331  0.19737  1.0000
  O   O35       1.0  0.89226  0.65537  0.14718  1.0000
  O   O36       1.0  0.90771  0.59627  0.17241  1.0000
  C   C72       1.0  0.88332  0.68159  0.37124  1.0000
  H   H27       1.0  0.89546  0.69154  0.38702  1.0000
  C   C73       1.0  0.14070  0.37087  0.36818  1.0000
  C   C74       1.0  0.14126  0.38489  0.28501  1.0000
  C   C75       1.0  0.13514  0.41095  0.28323  1.0000
  N   N19       1.0  0.14698  0.37159  0.20472  1.0000
  N   N20       1.0  0.13489  0.42329  0.19694  1.0000
  O   O37       1.0  0.16213  0.38120  0.16797  1.0000
  O   O38       1.0  0.14597  0.44253  0.19549  1.0000
  O   O39       1.0  0.13311  0.37034  0.14711  1.0000
  O   O40       1.0  0.11762  0.42940  0.17198  1.0000
  C   C76       1.0  0.14264  0.34447  0.37111  1.0000
  H   H28       1.0  0.13055  0.33448  0.38732  1.0000
  C   C77       1.0  0.13096  0.60332  0.34122  1.0000
  C   C78       1.0  0.13502  0.61902  0.26483  1.0000
  C   C79       1.0  0.14028  0.64472  0.27535  1.0000
  H   H29       1.0  0.14193  0.65566  0.21789  1.0000
  H   H30       1.0  0.13306  0.61226  0.19974  1.0000
  C   C80       1.0  0.12154  0.58004  0.32502  1.0000
  H   H31       1.0  0.11110  0.57991  0.27649  1.0000
  C   C81       1.0  0.89468  0.42260  0.34211  1.0000
  C   C82       1.0  0.89062  0.40692  0.26564  1.0000
  C   C83       1.0  0.88545  0.38119  0.27596  1.0000
  H   H32       1.0  0.88385  0.37027  0.21841  1.0000
  H   H33       1.0  0.89256  0.41373  0.20059  1.0000
  C   C84       1.0  0.90403  0.44593  0.32601  1.0000
  H   H34       1.0  0.91443  0.44615  0.27731  1.0000
  C   C85       1.0  0.53341  0.00658  0.35991  1.0000
  C   C86       1.0  0.52368  0.01050  0.27476  1.0000
  C   C87       1.0  0.50300  0.01678  0.27278  1.0000
  N   N21       1.0  0.53522  0.00782  0.19391  1.0000
  N   N22       1.0  0.49406  0.02030  0.18576  1.0000
  O   O41       1.0  0.53602  0.02812  0.14875  1.0000
  O   O42       1.0  0.48056  0.00431  0.17037  1.0000
  O   O43       1.0  0.52894  0.99019  0.14360  1.0000
  O   O44       1.0  0.48724  0.04235  0.17542  1.0000
  C   C88       1.0  0.55334  0.99999  0.36528  1.0000
  H   H35       1.0  0.55687  0.98206  0.37953  1.0000
  C   C89       1.0  0.03341  0.50658  0.35932  1.0000
  C   C90       1.0  0.02362  0.51031  0.27420  1.0000
  C   C91       1.0  0.00294  0.51659  0.27235  1.0000
  N   N23       1.0  0.03511  0.50746  0.19327  1.0000
  N   N24       1.0  0.99394  0.51993  0.18536  1.0000
  O   O45       1.0  0.03587  0.52766  0.14753  1.0000
  O   O46       1.0  0.98043  0.50390  0.17057  1.0000
  O   O47       1.0  0.02878  0.48973  0.14353  1.0000
  O   O48       1.0  0.98711  0.54196  0.17455  1.0000
  C   C92       1.0  0.05333  0.49999  0.36454  1.0000
  H   H36       1.0  0.05687  0.48203  0.37827  1.0000
  C   C93       1.0  0.24247  0.27084  0.35746  1.0000
  C   C94       1.0  0.25343  0.26828  0.27541  1.0000
  C   C95       1.0  0.27349  0.26038  0.27596  1.0000
  H   H37       1.0  0.28067  0.25820  0.21464  1.0000
  H   H38       1.0  0.24683  0.27210  0.21373  1.0000
  C   C96       1.0  0.22331  0.28117  0.35310  1.0000
  H   H39       1.0  0.22236  0.29983  0.34309  1.0000
  C   C97       1.0  0.78361  0.75543  0.35776  1.0000
  C   C98       1.0  0.77294  0.75860  0.27522  1.0000
  C   C99       1.0  0.75288  0.76651  0.27512  1.0000
  H   H40       1.0  0.74590  0.76911  0.21352  1.0000
  H   H41       1.0  0.77973  0.75522  0.21368  1.0000
  C   C100      1.0  0.80275  0.74505  0.35389  1.0000
  H   H42       1.0  0.80367  0.72633  0.34541  1.0000
  C   C101      1.0  0.74245  0.25543  0.35891  1.0000
  C   C102      1.0  0.75257  0.25920  0.27452  1.0000
  C   C103      1.0  0.77305  0.26682  0.27349  1.0000
  N   N25       1.0  0.74151  0.25510  0.19307  1.0000
  N   N26       1.0  0.78206  0.27060  0.18676  1.0000
  O   O49       1.0  0.74007  0.27494  0.14569  1.0000
  O   O50       1.0  0.79639  0.25568  0.17340  1.0000
  O   O51       1.0  0.74875  0.23754  0.14522  1.0000
  O   O52       1.0  0.78777  0.29311  0.17511  1.0000
  C   C104      1.0  0.72321  0.24538  0.36328  1.0000
  H   H43       1.0  0.72210  0.22677  0.37420  1.0000
  C   C105      1.0  0.28363  0.77025  0.35748  1.0000
  C   C106      1.0  0.27313  0.76724  0.27365  1.0000
  C   C107      1.0  0.25266  0.75960  0.27360  1.0000
  N   N27       1.0  0.28384  0.77204  0.19171  1.0000
  N   N28       1.0  0.24330  0.75653  0.18729  1.0000
  O   O53       1.0  0.28510  0.75261  0.14210  1.0000
  O   O54       1.0  0.22897  0.77161  0.17654  1.0000
  O   O55       1.0  0.27640  0.78999  0.14642  1.0000
  O   O56       1.0  0.23749  0.73414  0.17381  1.0000
  C   C108      1.0  0.30284  0.78037  0.36092  1.0000
  H   H44       1.0  0.30390  0.79915  0.36695  1.0000
  N   N29       1.0  0.02956  0.12211  0.36293  1.0000
  C   C109      1.0  0.01139  0.11017  0.36190  1.0000
  N   N30       1.0  0.99473  0.12515  0.35897  1.0000
  C   C110      1.0  0.99579  0.15111  0.35828  1.0000
  N   N31       1.0  0.01420  0.16186  0.35887  1.0000
  N   N32       1.0  0.04946  0.15921  0.36211  1.0000
  N   N33       1.0  0.98027  0.16709  0.35422  1.0000
  N   N34       1.0  0.00911  0.08469  0.35923  1.0000
  N   N35       1.0  0.99678  0.90376  0.36321  1.0000
  C   C111      1.0  0.01499  0.91559  0.36441  1.0000
  N   N36       1.0  0.03160  0.90051  0.36291  1.0000
  C   C112      1.0  0.03044  0.87457  0.36009  1.0000
  N   N37       1.0  0.01199  0.86393  0.35841  1.0000
  N   N38       1.0  0.97674  0.86676  0.36014  1.0000
  N   N39       1.0  0.04593  0.85854  0.35654  1.0000
  N   N40       1.0  0.01748  0.94106  0.36579  1.0000
  N   N41       1.0  0.52951  0.62210  0.36289  1.0000
  C   C113      1.0  0.51135  0.61017  0.36178  1.0000
  N   N42       1.0  0.49468  0.62515  0.35876  1.0000
  C   C114      1.0  0.49575  0.65111  0.35800  1.0000
  N   N43       1.0  0.51416  0.66185  0.35870  1.0000
  N   N44       1.0  0.54941  0.65921  0.36219  1.0000
  N   N45       1.0  0.48023  0.66709  0.35391  1.0000
  N   N46       1.0  0.50906  0.58469  0.35916  1.0000
  N   N47       1.0  0.49681  0.40376  0.36313  1.0000
  C   C115      1.0  0.51502  0.41559  0.36423  1.0000
  N   N48       1.0  0.53163  0.40051  0.36260  1.0000
  C   C116      1.0  0.53047  0.37457  0.35969  1.0000
  N   N49       1.0  0.51202  0.36393  0.35814  1.0000
  N   N50       1.0  0.47677  0.36676  0.36015  1.0000
  N   N51       1.0  0.54596  0.35853  0.35614  1.0000
  N   N52       1.0  0.51750  0.44106  0.36566  1.0000
  N   N53       1.0  0.39850  0.01289  0.35882  1.0000
  C   C117      1.0  0.40906  0.03510  0.36092  1.0000
  N   N54       1.0  0.42934  0.03355  0.36069  1.0000
  C   C118      1.0  0.43908  0.01092  0.35894  1.0000
  N   N55       1.0  0.42809  0.98935  0.35673  1.0000
  N   N56       1.0  0.39738  0.96804  0.35383  1.0000
  N   N57       1.0  0.45874  0.00868  0.35824  1.0000
  N   N58       1.0  0.39971  0.05766  0.36204  1.0000
  N   N59       1.0  0.62713  0.01307  0.35779  1.0000
  C   C119      1.0  0.61662  0.99081  0.35987  1.0000
  N   N60       1.0  0.59634  0.99228  0.35862  1.0000
  C   C120      1.0  0.58655  0.01486  0.35581  1.0000
  N   N61       1.0  0.59750  0.03647  0.35339  1.0000
  N   N62       1.0  0.62817  0.05790  0.35211  1.0000
  N   N63       1.0  0.56688  0.01695  0.35361  1.0000
  N   N64       1.0  0.62602  0.96829  0.36149  1.0000
  N   N65       1.0  0.89851  0.51284  0.35874  1.0000
  C   C121      1.0  0.90906  0.53506  0.36069  1.0000
  N   N66       1.0  0.92934  0.53352  0.36042  1.0000
  C   C122      1.0  0.93908  0.51089  0.35873  1.0000
  N   N67       1.0  0.92810  0.48932  0.35664  1.0000
  N   N68       1.0  0.89741  0.46798  0.35393  1.0000
  N   N69       1.0  0.95875  0.50867  0.35794  1.0000
  N   N70       1.0  0.89970  0.55762  0.36179  1.0000
  N   N71       1.0  0.12712  0.51311  0.35781  1.0000
  C   C123      1.0  0.11662  0.49085  0.35969  1.0000
  N   N72       1.0  0.09633  0.49232  0.35837  1.0000
  C   C124      1.0  0.08654  0.51490  0.35567  1.0000
  N   N73       1.0  0.09749  0.53651  0.35344  1.0000
  N   N74       1.0  0.12816  0.55794  0.35240  1.0000
  N   N75       1.0  0.06687  0.51699  0.35344  1.0000
  N   N76       1.0  0.12601  0.46833  0.36122  1.0000
  N   N77       1.0  0.17319  0.25766  0.36207  1.0000
  C   C125      1.0  0.15348  0.26415  0.36149  1.0000
  N   N78       1.0  0.14889  0.28943  0.35972  1.0000
  C   C126      1.0  0.16320  0.30787  0.35822  1.0000
  N   N79       1.0  0.18260  0.30042  0.35813  1.0000
  N   N80       1.0  0.20717  0.26797  0.36152  1.0000
  N   N81       1.0  0.15922  0.33276  0.35674  1.0000
  N   N82       1.0  0.13950  0.24580  0.36246  1.0000
  N   N83       1.0  0.85290  0.76850  0.36146  1.0000
  C   C127      1.0  0.87261  0.76197  0.36087  1.0000
  N   N84       1.0  0.87716  0.73668  0.35943  1.0000
  C   C128      1.0  0.86283  0.71827  0.35823  1.0000
  N   N85       1.0  0.84344  0.72576  0.35814  1.0000
  N   N86       1.0  0.81891  0.75827  0.36106  1.0000
  N   N87       1.0  0.86676  0.69336  0.35703  1.0000
  N   N88       1.0  0.88660  0.78030  0.36162  1.0000
  C   C129      1.0  0.83806  0.27413  0.35726  1.0000
  N   N89       1.0  0.85292  0.25640  0.35906  1.0000
  C   C130      1.0  0.87263  0.26294  0.35926  1.0000
  N   N90       1.0  0.87722  0.28823  0.35745  1.0000
  C   C131      1.0  0.86285  0.30657  0.35558  1.0000
  N   N91       1.0  0.84347  0.29910  0.35496  1.0000
  N   N92       1.0  0.81891  0.26674  0.35634  1.0000
  N   N93       1.0  0.86660  0.33145  0.35237  1.0000
  N   N94       1.0  0.88652  0.24452  0.36006  1.0000
  C   C132      1.0  0.18803  0.75152  0.35679  1.0000
  N   N95       1.0  0.17319  0.76929  0.35826  1.0000
  C   C133      1.0  0.15348  0.76278  0.35887  1.0000
  N   N96       1.0  0.14886  0.73750  0.35745  1.0000
  C   C134      1.0  0.16321  0.71913  0.35575  1.0000
  N   N97       1.0  0.18260  0.72656  0.35491  1.0000
  N   N98       1.0  0.20718  0.75888  0.35551  1.0000
  N   N99       1.0  0.15940  0.69426  0.35255  1.0000
  N   N100      1.0  0.13961  0.78121  0.35928  1.0000
  N   N101      1.0  0.67318  0.75760  0.36261  1.0000
  C   C135      1.0  0.65347  0.76409  0.36194  1.0000
  N   N102      1.0  0.64889  0.78938  0.36025  1.0000
  C   C136      1.0  0.66320  0.80781  0.35893  1.0000
  N   N103      1.0  0.68260  0.80036  0.35895  1.0000
  N   N104      1.0  0.70717  0.76790  0.36211  1.0000
  N   N105      1.0  0.65922  0.83271  0.35746  1.0000
  N   N106      1.0  0.63948  0.74574  0.36270  1.0000
  N   N107      1.0  0.35291  0.26855  0.36146  1.0000
  C   C137      1.0  0.37261  0.26202  0.36094  1.0000
  N   N108      1.0  0.37717  0.23672  0.35972  1.0000
  C   C138      1.0  0.36283  0.21832  0.35871  1.0000
  N   N109      1.0  0.34344  0.22581  0.35860  1.0000
  N   N110      1.0  0.31890  0.25833  0.36101  1.0000
  N   N111      1.0  0.36676  0.19340  0.35760  1.0000
  N   N112      1.0  0.38661  0.28035  0.36148  1.0000
  C   C139      1.0  0.33802  0.77418  0.35657  1.0000
  N   N113      1.0  0.35287  0.75643  0.35837  1.0000
  C   C140      1.0  0.37258  0.76296  0.35872  1.0000
  N   N114      1.0  0.37719  0.78824  0.35704  1.0000
  C   C141      1.0  0.36282  0.80660  0.35519  1.0000
  N   N115      1.0  0.34344  0.79914  0.35445  1.0000
  N   N116      1.0  0.31886  0.76682  0.35556  1.0000
  N   N117      1.0  0.36659  0.83148  0.35205  1.0000
  N   N118      1.0  0.38647  0.74454  0.35952  1.0000
  C   C142      1.0  0.68807  0.25149  0.35536  1.0000
  N   N119      1.0  0.67323  0.26926  0.35681  1.0000
  C   C143      1.0  0.65352  0.26276  0.35780  1.0000
  N   N120      1.0  0.64889  0.23748  0.35673  1.0000
  C   C144      1.0  0.66324  0.21910  0.35504  1.0000
  N   N121      1.0  0.68262  0.22653  0.35387  1.0000
  N   N122      1.0  0.70723  0.25881  0.35378  1.0000
  N   N123      1.0  0.65942  0.19423  0.35202  1.0000
  N   N124      1.0  0.63965  0.28119  0.35826  1.0000
  C   C145      1.0  0.01629  0.04009  0.36879  1.0000
  C   C146      1.0  0.01908  0.02411  0.44565  1.0000
  C   C147      1.0  0.01588  0.99762  0.44113  1.0000
  H   H45       1.0  0.01757  0.98712  0.49957  1.0000
  H   H46       1.0  0.02338  0.03175  0.50698  1.0000
  C   C148      1.0  0.02120  0.06612  0.37653  1.0000
  H   H47       1.0  0.03491  0.07030  0.39758  1.0000
  C   C149      1.0  0.51624  0.54010  0.36876  1.0000
  C   C150      1.0  0.51892  0.52417  0.44583  1.0000
  C   C151      1.0  0.51574  0.49767  0.44141  1.0000
  H   H48       1.0  0.51732  0.48720  0.50000  1.0000
  H   H49       1.0  0.52310  0.53185  0.50727  1.0000
  C   C152      1.0  0.52116  0.56612  0.37642  1.0000
  H   H50       1.0  0.53488  0.57030  0.39736  1.0000
  C   C153      1.0  0.10707  0.22704  0.35308  1.0000
  C   C154      1.0  0.10067  0.21503  0.43533  1.0000
  C   C155      1.0  0.08366  0.19832  0.43491  1.0000
  N   N125      1.0  0.11143  0.22160  0.51541  1.0000
  N   N126      1.0  0.07581  0.18667  0.51461  1.0000
  O   O57       1.0  0.12004  0.20307  0.55219  1.0000
  O   O58       1.0  0.08762  0.17136  0.55180  1.0000
  O   O59       1.0  0.10134  0.23366  0.57316  1.0000
  O   O60       1.0  0.06912  0.20217  0.57216  1.0000
  C   C156      1.0  0.12042  0.24756  0.35181  1.0000
  H   H51       1.0  0.11452  0.26461  0.34004  1.0000
  C   C157      1.0  0.91907  0.79900  0.35145  1.0000
  C   C158      1.0  0.92537  0.81116  0.43358  1.0000
  C   C159      1.0  0.94239  0.82785  0.43316  1.0000
  N   N127      1.0  0.91453  0.80472  0.51359  1.0000
  N   N128      1.0  0.95017  0.83963  0.51278  1.0000
  O   O61       1.0  0.90589  0.82331  0.54981  1.0000
  O   O62       1.0  0.93832  0.85501  0.54937  1.0000
  O   O63       1.0  0.92456  0.79275  0.57181  1.0000
  O   O64       1.0  0.95679  0.82423  0.57082  1.0000
  C   C160      1.0  0.90567  0.77851  0.35036  1.0000
  H   H52       1.0  0.91152  0.76146  0.33814  1.0000
  C   C161      1.0  0.94792  0.18499  0.36149  1.0000
  C   C162      1.0  0.93569  0.19108  0.43723  1.0000
  C   C163      1.0  0.92142  0.21069  0.43293  1.0000
  H   H53       1.0  0.91337  0.21485  0.49052  1.0000
  H   H54       1.0  0.93728  0.18142  0.49762  1.0000
  C   C164      1.0  0.96144  0.16466  0.36969  1.0000
  H   H55       1.0  0.95629  0.14797  0.39120  1.0000
  C   C165      1.0  0.07823  0.84071  0.36532  1.0000
  C   C166      1.0  0.08976  0.83392  0.44255  1.0000
  C   C167      1.0  0.10401  0.81425  0.43870  1.0000
  H   H56       1.0  0.11153  0.80957  0.49727  1.0000
  H   H57       1.0  0.08765  0.84307  0.50361  1.0000
  C   C168      1.0  0.06473  0.86102  0.37275  1.0000
  H   H58       1.0  0.06984  0.87769  0.39455  1.0000
  C   C169      1.0  0.60704  0.72701  0.35350  1.0000
  C   C170      1.0  0.60060  0.71496  0.43560  1.0000
  C   C171      1.0  0.58359  0.69825  0.43491  1.0000
  N   N129      1.0  0.61133  0.72148  0.51582  1.0000
  N   N130      1.0  0.57570  0.68656  0.51446  1.0000
  O   O65       1.0  0.61993  0.70293  0.55254  1.0000
  O   O66       1.0  0.58750  0.67122  0.55162  1.0000
  O   O67       1.0  0.60122  0.73351  0.57358  1.0000
  O   O68       1.0  0.56900  0.70203  0.57207  1.0000
  C   C172      1.0  0.62039  0.74754  0.35253  1.0000
  H   H59       1.0  0.61448  0.76461  0.34141  1.0000
  C   C173      1.0  0.41909  0.29902  0.35178  1.0000
  C   C174      1.0  0.42543  0.31123  0.43376  1.0000
  C   C175      1.0  0.44245  0.32792  0.43305  1.0000
  N   N131      1.0  0.41462  0.30485  0.51391  1.0000
  N   N132      1.0  0.45025  0.33975  0.51251  1.0000
  O   O69       1.0  0.40599  0.32346  0.55002  1.0000
  O   O70       1.0  0.43842  0.35516  0.54905  1.0000
  O   O71       1.0  0.42467  0.29292  0.57216  1.0000
  O   O72       1.0  0.45690  0.32439  0.57064  1.0000
  C   C176      1.0  0.40570  0.27852  0.35102  1.0000
  H   H60       1.0  0.41158  0.26144  0.33979  1.0000
  C   C177      1.0  0.44788  0.68500  0.36116  1.0000
  C   C178      1.0  0.43564  0.69110  0.43687  1.0000
  C   C179      1.0  0.42137  0.71071  0.43252  1.0000
  H   H61       1.0  0.41331  0.71486  0.49009  1.0000
  H   H62       1.0  0.43722  0.68144  0.49726  1.0000
  C   C180      1.0  0.46139  0.66466  0.36938  1.0000
  H   H63       1.0  0.45624  0.64799  0.39101  1.0000
  C   C181      1.0  0.57826  0.34069  0.36479  1.0000
  C   C182      1.0  0.58980  0.33390  0.44198  1.0000
  C   C183      1.0  0.60405  0.31423  0.43807  1.0000
  H   H64       1.0  0.61158  0.30954  0.49661  1.0000
  H   H65       1.0  0.58770  0.34304  0.50307  1.0000
  C   C184      1.0  0.56476  0.36101  0.37228  1.0000
  H   H66       1.0  0.56988  0.37769  0.39397  1.0000
  C   C185      1.0  0.39704  0.10282  0.36659  1.0000
  C   C186      1.0  0.39720  0.11705  0.44851  1.0000
  C   C187      1.0  0.39141  0.14273  0.44972  1.0000
  H   H67       1.0  0.39285  0.15263  0.50971  1.0000
  H   H68       1.0  0.40280  0.10933  0.50749  1.0000
  C   C188      1.0  0.40760  0.08004  0.36593  1.0000
  H   H69       1.0  0.42237  0.08168  0.36906  1.0000
  C   C189      1.0  0.62874  0.92314  0.36588  1.0000
  C   C190      1.0  0.62882  0.90906  0.44810  1.0000
  C   C191      1.0  0.63466  0.88340  0.44951  1.0000
  H   H70       1.0  0.63343  0.87360  0.50978  1.0000
  H   H71       1.0  0.62338  0.91689  0.50721  1.0000
  C   C192      1.0  0.61816  0.94589  0.36502  1.0000
  H   H72       1.0  0.60339  0.94421  0.36741  1.0000
  C   C193      1.0  0.64170  0.15575  0.36217  1.0000
  C   C194      1.0  0.63847  0.14019  0.44029  1.0000
  C   C195      1.0  0.63309  0.11403  0.42990  1.0000
  N   N133      1.0  0.64033  0.15198  0.52726  1.0000
  N   N134      1.0  0.62913  0.10026  0.51127  1.0000
  O   O73       1.0  0.65385  0.14200  0.57470  1.0000
  O   O74       1.0  0.64088  0.08193  0.52206  1.0000
  O   O75       1.0  0.62425  0.15193  0.57127  1.0000
  O   O76       1.0  0.61141  0.09267  0.51660  1.0000
  C   C196      1.0  0.64319  0.18209  0.36910  1.0000
  H   H73       1.0  0.63113  0.19157  0.38927  1.0000
  C   C197      1.0  0.38417  0.87005  0.36275  1.0000
  C   C198      1.0  0.38739  0.88558  0.44096  1.0000
  C   C199      1.0  0.39265  0.91178  0.43074  1.0000
  N   N135      1.0  0.38561  0.87373  0.52786  1.0000
  N   N136      1.0  0.39663  0.92552  0.51219  1.0000
  O   O77       1.0  0.37208  0.88360  0.57553  1.0000
  O   O78       1.0  0.38481  0.94376  0.52338  1.0000
  O   O79       1.0  0.40171  0.87385  0.57170  1.0000
  O   O80       1.0  0.41432  0.93320  0.51731  1.0000
  C   C200      1.0  0.38277  0.84370  0.36952  1.0000
  H   H74       1.0  0.39481  0.83428  0.39023  1.0000
  C   C201      1.0  0.89704  0.60277  0.36597  1.0000
  C   C202      1.0  0.89718  0.61699  0.44792  1.0000
  C   C203      1.0  0.89140  0.64267  0.44917  1.0000
  H   H75       1.0  0.89282  0.65256  0.50919  1.0000
  H   H76       1.0  0.90277  0.60925  0.50690  1.0000
  C   C204      1.0  0.90760  0.58000  0.36527  1.0000
  H   H77       1.0  0.92237  0.58165  0.36805  1.0000
  C   C205      1.0  0.12873  0.42319  0.36525  1.0000
  C   C206      1.0  0.12884  0.40911  0.44750  1.0000
  C   C207      1.0  0.13469  0.38346  0.44890  1.0000
  H   H78       1.0  0.13348  0.37366  0.50920  1.0000
  H   H79       1.0  0.12343  0.41695  0.50664  1.0000
  C   C208      1.0  0.11815  0.44593  0.36443  1.0000
  H   H80       1.0  0.10338  0.44424  0.36659  1.0000
  C   C209      1.0  0.14170  0.65578  0.36298  1.0000
  C   C210      1.0  0.13839  0.64020  0.44100  1.0000
  C   C211      1.0  0.13302  0.61405  0.43046  1.0000
  N   N137      1.0  0.14020  0.65197  0.52804  1.0000
  N   N138      1.0  0.12899  0.60026  0.51173  1.0000
  O   O81       1.0  0.15368  0.64197  0.57566  1.0000
  O   O82       1.0  0.14073  0.58193  0.52265  1.0000
  O   O83       1.0  0.12409  0.65192  0.57182  1.0000
  O   O84       1.0  0.11126  0.59268  0.51676  1.0000
  C   C212      1.0  0.14319  0.68212  0.37003  1.0000
  H   H81       1.0  0.13117  0.69158  0.39076  1.0000
  C   C213      1.0  0.88416  0.37004  0.36348  1.0000
  C   C214      1.0  0.88747  0.38558  0.44160  1.0000
  C   C215      1.0  0.89275  0.41177  0.43124  1.0000
  N   N139      1.0  0.88576  0.37374  0.52856  1.0000
  N   N140      1.0  0.89681  0.42550  0.51260  1.0000
  O   O85       1.0  0.87229  0.38363  0.57648  1.0000
  O   O86       1.0  0.88502  0.44377  0.52397  1.0000
  O   O87       1.0  0.90190  0.37384  0.57208  1.0000
  O   O88       1.0  0.91451  0.43317  0.51740  1.0000
  C   C216      1.0  0.88275  0.34369  0.37034  1.0000
  H   H82       1.0  0.89476  0.33428  0.39159  1.0000
  C   C217      1.0  0.49221  0.01906  0.35636  1.0000
  C   C218      1.0  0.50215  0.01509  0.44018  1.0000
  C   C219      1.0  0.52246  0.00874  0.44191  1.0000
  H   H83       1.0  0.52921  0.00591  0.50394  1.0000
  H   H84       1.0  0.49468  0.01676  0.50102  1.0000
  C   C220      1.0  0.47234  0.02588  0.35857  1.0000
  H   H85       1.0  0.46887  0.04426  0.35916  1.0000
  C   C221      1.0  0.99221  0.51907  0.35602  1.0000
  C   C222      1.0  0.00221  0.51529  0.43981  1.0000
  C   C223      1.0  0.02252  0.50895  0.44141  1.0000
  H   H86       1.0  0.02932  0.50625  0.50342  1.0000
  H   H87       1.0  0.99479  0.51710  0.50071  1.0000
  C   C224      1.0  0.97233  0.52588  0.35835  1.0000
  H   H88       1.0  0.96886  0.54425  0.35915  1.0000
  C   C225      1.0  0.28361  0.25547  0.35878  1.0000
  C   C226      1.0  0.27289  0.25804  0.44222  1.0000
  C   C227      1.0  0.25247  0.26595  0.44184  1.0000
  N   N141      1.0  0.28335  0.25258  0.52431  1.0000
  N   N142      1.0  0.24292  0.26855  0.52790  1.0000
  O   O89       1.0  0.28462  0.27168  0.57560  1.0000
  O   O90       1.0  0.22854  0.25348  0.53684  1.0000
  O   O91       1.0  0.27567  0.23444  0.56768  1.0000
  O   O92       1.0  0.23716  0.29089  0.54291  1.0000
  C   C228      1.0  0.30275  0.24504  0.35551  1.0000
  H   H89       1.0  0.30365  0.22625  0.34951  1.0000
  C   C229      1.0  0.74246  0.77077  0.35766  1.0000
  C   C230      1.0  0.75290  0.76759  0.44156  1.0000
  C   C231      1.0  0.77332  0.75969  0.44185  1.0000
  N   N143      1.0  0.74218  0.77250  0.52339  1.0000
  N   N144      1.0  0.78261  0.75653  0.52826  1.0000
  O   O93       1.0  0.74075  0.75306  0.57293  1.0000
  O   O94       1.0  0.79702  0.77148  0.53919  1.0000
  O   O95       1.0  0.74972  0.79034  0.56882  1.0000
  O   O96       1.0  0.78829  0.73408  0.54179  1.0000
  C   C232      1.0  0.72330  0.78113  0.35380  1.0000
  H   H90       1.0  0.72236  0.79982  0.34451  1.0000
  C   C233      1.0  0.78368  0.27015  0.35720  1.0000
  C   C234      1.0  0.77334  0.26634  0.44026  1.0000
  C   C235      1.0  0.75322  0.25874  0.44107  1.0000
  H   H91       1.0  0.74645  0.25568  0.50290  1.0000
  H   H92       1.0  0.78042  0.26908  0.50156  1.0000
  C   C236      1.0  0.80288  0.28029  0.36041  1.0000
  H   H93       1.0  0.80392  0.29910  0.36529  1.0000
  C   C237      1.0  0.24242  0.75545  0.35786  1.0000
  C   C238      1.0  0.25313  0.75848  0.44033  1.0000
  C   C239      1.0  0.27326  0.76608  0.44020  1.0000
  H   H94       1.0  0.28030  0.76860  0.50169  1.0000
  H   H95       1.0  0.24634  0.75516  0.50193  1.0000
  C   C240      1.0  0.22320  0.74537  0.36177  1.0000
  H   H96       1.0  0.22213  0.72663  0.36929  1.0000
