data_image0
_chemical_formula_structural       COCOH2C2HC2HC4OH4C6O2H4C6O2H4N12C3HOC2OC3HOC3OHC3HOC3OHC4NH3C4NH3C4NH3C4NH3C4NH3C4NH3C4OH4C6O2H4C6O2H4N12C3HOC2OC3HOC3OHC3HOC3OHC4NH3C4NH3C4NH3C4NH3C4NH3C4NH3C6O2H3C6O2H4C6O2H4N12C3HOC3OHC3HOC3OHC3HOC3OHC4NH3C4NH3C4NH3C4NH3C4NH3C4NH3C6O2H3C6O2H4C6O2H4N12C3HOC3OHC3HOC3OHC3HOC3OHC4NH3C4NH3C4NH3C4NH3C4NH3C4NH3
_chemical_formula_sum              "C240 O48 H144 N72"
_cell_length_a       46.2135
_cell_length_b       46.2135
_cell_length_c       14.9612
_cell_angle_alpha    90
_cell_angle_beta     90
_cell_angle_gamma    120

_space_group_name_H-M_alt    "P 1"
_space_group_IT_number       1

loop_
  _space_group_symop_operation_xyz
  'x, y, z'

loop_
  _atom_site_type_symbol
  _atom_site_label
  _atom_site_symmetry_multiplicity
  _atom_site_fract_x
  _atom_site_fract_y
  _atom_site_fract_z
  _atom_site_occupancy
  C   C1        1.0  0.01994  0.26119  0.35144  1.0000
  O   O1        1.0  0.02392  0.31527  0.31527  1.0000
  C   C2        1.0  0.01994  0.76119  0.35144  1.0000
  O   O2        1.0  0.02392  0.81527  0.31527  1.0000
  H   H1        1.0  0.01832  0.31131  0.25130  1.0000
  H   H2        1.0  0.01832  0.81131  0.25130  1.0000
  C   C3        1.0  0.03844  0.29682  0.33723  1.0000
  C   C4        1.0  0.04007  0.24596  0.36301  1.0000
  H   H3        1.0  0.02975  0.22181  0.38319  1.0000
  C   C5        1.0  0.03844  0.79682  0.33723  1.0000
  C   C6        1.0  0.04007  0.74596  0.36301  1.0000
  H   H4        1.0  0.02975  0.72181  0.38319  1.0000
  C   C7        1.0  0.48379  0.24133  0.35092  1.0000
  C   C8        1.0  0.42995  0.18753  0.33009  1.0000
  C   C9        1.0  0.46532  0.20576  0.33584  1.0000
  C   C10       1.0  0.07384  0.31511  0.33257  1.0000
  O   O3        1.0  0.47989  0.18733  0.31411  1.0000
  H   H5        1.0  0.98572  0.19144  0.25029  1.0000
  H   H6        1.0  0.51832  0.31131  0.25130  1.0000
  H   H7        1.0  0.37252  0.18565  0.26114  1.0000
  H   H8        1.0  0.13154  0.31707  0.26515  1.0000
  C   C11       1.0  0.26168  0.24309  0.35150  1.0000
  C   C12       1.0  0.31557  0.24303  0.33282  1.0000
  C   C13       1.0  0.29730  0.26017  0.33703  1.0000
  C   C14       1.0  0.24185  0.25942  0.35088  1.0000
  C   C15       1.0  0.20625  0.24232  0.33611  1.0000
  C   C16       1.0  0.18807  0.25950  0.32992  1.0000
  O   O4        1.0  0.31579  0.29314  0.31515  1.0000
  O   O5        1.0  0.18770  0.20923  0.31552  1.0000
  H   H9        1.0  0.31192  0.29479  0.25113  1.0000
  H   H10       1.0  0.19156  0.20721  0.25169  1.0000
  H   H11       1.0  0.31757  0.18729  0.26588  1.0000
  H   H12       1.0  0.18633  0.31499  0.25959  1.0000
  C   C17       1.0  0.26015  0.01939  0.35115  1.0000
  C   C18       1.0  0.26017  0.07327  0.33114  1.0000
  C   C19       1.0  0.24302  0.03789  0.33682  1.0000
  C   C20       1.0  0.24388  0.48324  0.35104  1.0000
  C   C21       1.0  0.26102  0.46478  0.33604  1.0000
  C   C22       1.0  0.24389  0.42940  0.33023  1.0000
  O   O6        1.0  0.20995  0.02334  0.31611  1.0000
  O   O7        1.0  0.29401  0.47935  0.31431  1.0000
  H   H13       1.0  0.20797  0.51760  0.25218  1.0000
  H   H14       1.0  0.29573  0.98513  0.25046  1.0000
  H   H15       1.0  0.31565  0.13062  0.26128  1.0000
  H   H16       1.0  0.18828  0.37199  0.26114  1.0000
  N   N1        1.0  0.11068  0.25070  0.26597  1.0000
  N   N2        1.0  0.13822  0.24962  0.25926  1.0000
  N   N3        1.0  0.25253  0.36104  0.26442  1.0000
  N   N4        1.0  0.25375  0.38974  0.25839  1.0000
  N   N5        1.0  0.14219  0.39196  0.26654  1.0000
  N   N6        1.0  0.11348  0.36448  0.26099  1.0000
  N   N7        1.0  0.39256  0.25175  0.26677  1.0000
  N   N8        1.0  0.36499  0.25284  0.26129  1.0000
  N   N9        1.0  0.25121  0.14178  0.26713  1.0000
  N   N10       1.0  0.25024  0.11321  0.26044  1.0000
  N   N11       1.0  0.36154  0.11025  0.26487  1.0000
  N   N12       1.0  0.39016  0.13780  0.25866  1.0000
  C   C23       1.0  0.46361  0.25651  0.36254  1.0000
  C   C24       1.0  0.42897  0.23999  0.34521  1.0000
  C   C25       1.0  0.41236  0.20526  0.32884  1.0000
  H   H17       1.0  0.47389  0.28056  0.38361  1.0000
  O   O8        1.0  0.37825  0.18807  0.32506  1.0000
  C   C26       1.0  0.09146  0.29741  0.33178  1.0000
  C   C27       1.0  0.07479  0.26261  0.34698  1.0000
  O   O9        1.0  0.12559  0.31456  0.32890  1.0000
  C   C28       1.0  0.24645  0.20774  0.36336  1.0000
  C   C29       1.0  0.26306  0.18962  0.34737  1.0000
  C   C30       1.0  0.29786  0.20771  0.33229  1.0000
  H   H18       1.0  0.22233  0.19395  0.38382  1.0000
  O   O10       1.0  0.31502  0.19074  0.32960  1.0000
  C   C31       1.0  0.20586  0.29481  0.32782  1.0000
  C   C32       1.0  0.24058  0.31293  0.34426  1.0000
  C   C33       1.0  0.25708  0.29480  0.36196  1.0000
  O   O11       1.0  0.18875  0.31181  0.32358  1.0000
  H   H19       1.0  0.28114  0.30861  0.38287  1.0000
  C   C34       1.0  0.29553  0.03956  0.36232  1.0000
  C   C35       1.0  0.31361  0.07421  0.34511  1.0000
  C   C36       1.0  0.29548  0.09083  0.32917  1.0000
  H   H20       1.0  0.30936  0.02929  0.38292  1.0000
  O   O12       1.0  0.31247  0.12494  0.32522  1.0000
  C   C37       1.0  0.20857  0.41181  0.32894  1.0000
  C   C38       1.0  0.19044  0.42839  0.34546  1.0000
  C   C39       1.0  0.20853  0.46303  0.36274  1.0000
  O   O13       1.0  0.19166  0.37769  0.32506  1.0000
  H   H21       1.0  0.19473  0.47328  0.38376  1.0000
  C   C40       1.0  0.15271  0.24297  0.32900  1.0000
  C   C41       1.0  0.13598  0.23674  0.41213  1.0000
  C   C42       1.0  0.10634  0.23862  0.42110  1.0000
  C   C43       1.0  0.09335  0.24582  0.34326  1.0000
  N   N13       1.0  0.09330  0.23648  0.50392  1.0000
  H   H22       1.0  0.10293  0.23207  0.55645  1.0000
  H   H23       1.0  0.07329  0.23797  0.51301  1.0000
  H   H24       1.0  0.14772  0.23529  0.46865  1.0000
  C   C44       1.0  0.26052  0.41066  0.32871  1.0000
  C   C45       1.0  0.26673  0.39993  0.41146  1.0000
  C   C46       1.0  0.26474  0.36834  0.41957  1.0000
  C   C47       1.0  0.25733  0.34830  0.34132  1.0000
  N   N14       1.0  0.26684  0.35723  0.50215  1.0000
  H   H25       1.0  0.27131  0.37116  0.55493  1.0000
  H   H26       1.0  0.26512  0.33562  0.51091  1.0000
  H   H27       1.0  0.26824  0.41301  0.46827  1.0000
  C   C48       1.0  0.09258  0.35047  0.33151  1.0000
  C   C49       1.0  0.10344  0.36767  0.41383  1.0000
  C   C50       1.0  0.13509  0.39723  0.42146  1.0000
  C   C51       1.0  0.15507  0.40973  0.34309  1.0000
  N   N15       1.0  0.14629  0.41062  0.50382  1.0000
  H   H28       1.0  0.13246  0.40123  0.55679  1.0000
  H   H29       1.0  0.16799  0.43043  0.51231  1.0000
  H   H30       1.0  0.09046  0.35615  0.47078  1.0000
  C   C52       1.0  0.35093  0.25965  0.33185  1.0000
  C   C53       1.0  0.36807  0.26590  0.41422  1.0000
  C   C54       1.0  0.39773  0.26400  0.42181  1.0000
  C   C55       1.0  0.41036  0.25675  0.34334  1.0000
  N   N16       1.0  0.41114  0.26615  0.50412  1.0000
  H   H31       1.0  0.40174  0.27055  0.55714  1.0000
  H   H32       1.0  0.43111  0.26452  0.51242  1.0000
  H   H33       1.0  0.35657  0.26734  0.47123  1.0000
  C   C56       1.0  0.24360  0.09208  0.33020  1.0000
  C   C57       1.0  0.23738  0.10260  0.41329  1.0000
  C   C58       1.0  0.23918  0.13408  0.42210  1.0000
  C   C59       1.0  0.24623  0.15426  0.34431  1.0000
  N   N17       1.0  0.23707  0.14503  0.50487  1.0000
  H   H34       1.0  0.23277  0.13107  0.55750  1.0000
  H   H35       1.0  0.23850  0.16652  0.51382  1.0000
  H   H36       1.0  0.23599  0.08945  0.46986  1.0000
  C   C60       1.0  0.41119  0.15216  0.32870  1.0000
  C   C61       1.0  0.40053  0.13530  0.41162  1.0000
  C   C62       1.0  0.36901  0.10563  0.42011  1.0000
  C   C63       1.0  0.34898  0.09280  0.34198  1.0000
  N   N18       1.0  0.35798  0.09251  0.50279  1.0000
  H   H37       1.0  0.37193  0.10208  0.55550  1.0000
  H   H38       1.0  0.33644  0.07253  0.51166  1.0000
  H   H39       1.0  0.41363  0.14696  0.46833  1.0000
  C   C64       1.0  0.48379  0.74133  0.35092  1.0000
  C   C65       1.0  0.42995  0.68753  0.33009  1.0000
  C   C66       1.0  0.46532  0.70576  0.33584  1.0000
  C   C67       1.0  0.07384  0.81511  0.33257  1.0000
  O   O14       1.0  0.47989  0.68733  0.31411  1.0000
  H   H40       1.0  0.98572  0.69144  0.25029  1.0000
  H   H41       1.0  0.51832  0.81131  0.25130  1.0000
  H   H42       1.0  0.37252  0.68565  0.26114  1.0000
  H   H43       1.0  0.13154  0.81707  0.26515  1.0000
  C   C68       1.0  0.26168  0.74309  0.35150  1.0000
  C   C69       1.0  0.31557  0.74303  0.33282  1.0000
  C   C70       1.0  0.29730  0.76017  0.33703  1.0000
  C   C71       1.0  0.24185  0.75942  0.35088  1.0000
  C   C72       1.0  0.20625  0.74232  0.33611  1.0000
  C   C73       1.0  0.18807  0.75950  0.32992  1.0000
  O   O15       1.0  0.31579  0.79314  0.31515  1.0000
  O   O16       1.0  0.18770  0.70923  0.31552  1.0000
  H   H44       1.0  0.31192  0.79479  0.25113  1.0000
  H   H45       1.0  0.19156  0.70720  0.25169  1.0000
  H   H46       1.0  0.31757  0.68730  0.26588  1.0000
  H   H47       1.0  0.18633  0.81500  0.25959  1.0000
  C   C74       1.0  0.26015  0.51939  0.35115  1.0000
  C   C75       1.0  0.26017  0.57327  0.33114  1.0000
  C   C76       1.0  0.24302  0.53789  0.33682  1.0000
  C   C77       1.0  0.24388  0.98324  0.35104  1.0000
  C   C78       1.0  0.26102  0.96478  0.33604  1.0000
  C   C79       1.0  0.24389  0.92941  0.33023  1.0000
  O   O17       1.0  0.20995  0.52334  0.31611  1.0000
  O   O18       1.0  0.29401  0.97935  0.31431  1.0000
  H   H48       1.0  0.20797  0.01761  0.25218  1.0000
  H   H49       1.0  0.29573  0.48513  0.25046  1.0000
  H   H50       1.0  0.31565  0.63062  0.26128  1.0000
  H   H51       1.0  0.18828  0.87199  0.26114  1.0000
  N   N19       1.0  0.11068  0.75070  0.26597  1.0000
  N   N20       1.0  0.13822  0.74962  0.25926  1.0000
  N   N21       1.0  0.25253  0.86104  0.26442  1.0000
  N   N22       1.0  0.25375  0.88973  0.25839  1.0000
  N   N23       1.0  0.14219  0.89196  0.26654  1.0000
  N   N24       1.0  0.11347  0.86448  0.26099  1.0000
  N   N25       1.0  0.39255  0.75175  0.26677  1.0000
  N   N26       1.0  0.36499  0.75284  0.26129  1.0000
  N   N27       1.0  0.25121  0.64178  0.26713  1.0000
  N   N28       1.0  0.25023  0.61321  0.26044  1.0000
  N   N29       1.0  0.36153  0.61025  0.26487  1.0000
  N   N30       1.0  0.39016  0.63780  0.25866  1.0000
  C   C80       1.0  0.46361  0.75651  0.36254  1.0000
  C   C81       1.0  0.42897  0.73999  0.34521  1.0000
  C   C82       1.0  0.41236  0.70526  0.32884  1.0000
  H   H52       1.0  0.47389  0.78056  0.38361  1.0000
  O   O19       1.0  0.37825  0.68807  0.32506  1.0000
  C   C83       1.0  0.09146  0.79741  0.33178  1.0000
  C   C84       1.0  0.07479  0.76261  0.34698  1.0000
  O   O20       1.0  0.12559  0.81456  0.32890  1.0000
  C   C85       1.0  0.24645  0.70773  0.36336  1.0000
  C   C86       1.0  0.26306  0.68961  0.34737  1.0000
  C   C87       1.0  0.29786  0.70771  0.33229  1.0000
  H   H53       1.0  0.22233  0.69395  0.38382  1.0000
  O   O21       1.0  0.31501  0.69074  0.32960  1.0000
  C   C88       1.0  0.20586  0.79481  0.32782  1.0000
  C   C89       1.0  0.24058  0.81293  0.34426  1.0000
  C   C90       1.0  0.25708  0.79480  0.36196  1.0000
  O   O22       1.0  0.18875  0.81181  0.32358  1.0000
  H   H54       1.0  0.28114  0.80861  0.38287  1.0000
  C   C91       1.0  0.29553  0.53956  0.36232  1.0000
  C   C92       1.0  0.31361  0.57421  0.34511  1.0000
  C   C93       1.0  0.29547  0.59083  0.32917  1.0000
  H   H55       1.0  0.30936  0.52929  0.38292  1.0000
  O   O23       1.0  0.31246  0.62494  0.32522  1.0000
  C   C94       1.0  0.20857  0.91181  0.32894  1.0000
  C   C95       1.0  0.19043  0.92839  0.34546  1.0000
  C   C96       1.0  0.20853  0.96303  0.36274  1.0000
  O   O24       1.0  0.19166  0.87769  0.32506  1.0000
  H   H56       1.0  0.19473  0.97328  0.38376  1.0000
  C   C97       1.0  0.15270  0.74296  0.32900  1.0000
  C   C98       1.0  0.13598  0.73674  0.41213  1.0000
  C   C99       1.0  0.10634  0.73862  0.42110  1.0000
  C   C100      1.0  0.09335  0.74582  0.34326  1.0000
  N   N31       1.0  0.09330  0.73648  0.50392  1.0000
  H   H57       1.0  0.10293  0.73207  0.55645  1.0000
  H   H58       1.0  0.07329  0.73797  0.51301  1.0000
  H   H59       1.0  0.14772  0.73529  0.46865  1.0000
  C   C101      1.0  0.26052  0.91066  0.32871  1.0000
  C   C102      1.0  0.26673  0.89993  0.41146  1.0000
  C   C103      1.0  0.26474  0.86834  0.41957  1.0000
  C   C104      1.0  0.25733  0.84829  0.34132  1.0000
  N   N32       1.0  0.26684  0.85723  0.50215  1.0000
  H   H60       1.0  0.27131  0.87116  0.55493  1.0000
  H   H61       1.0  0.26512  0.83561  0.51091  1.0000
  H   H62       1.0  0.26824  0.91301  0.46827  1.0000
  C   C105      1.0  0.09258  0.85047  0.33151  1.0000
  C   C106      1.0  0.10344  0.86767  0.41383  1.0000
  C   C107      1.0  0.13508  0.89723  0.42146  1.0000
  C   C108      1.0  0.15507  0.90973  0.34309  1.0000
  N   N33       1.0  0.14629  0.91062  0.50382  1.0000
  H   H63       1.0  0.13246  0.90123  0.55679  1.0000
  H   H64       1.0  0.16799  0.93043  0.51231  1.0000
  H   H65       1.0  0.09046  0.85615  0.47078  1.0000
  C   C109      1.0  0.35093  0.75965  0.33185  1.0000
  C   C110      1.0  0.36807  0.76590  0.41422  1.0000
  C   C111      1.0  0.39773  0.76400  0.42181  1.0000
  C   C112      1.0  0.41036  0.75676  0.34334  1.0000
  N   N34       1.0  0.41114  0.76615  0.50412  1.0000
  H   H66       1.0  0.40174  0.77055  0.55714  1.0000
  H   H67       1.0  0.43111  0.76452  0.51242  1.0000
  H   H68       1.0  0.35657  0.76734  0.47123  1.0000
  C   C113      1.0  0.24360  0.59207  0.33020  1.0000
  C   C114      1.0  0.23738  0.60260  0.41329  1.0000
  C   C115      1.0  0.23918  0.63408  0.42210  1.0000
  C   C116      1.0  0.24623  0.65426  0.34431  1.0000
  N   N35       1.0  0.23707  0.64503  0.50487  1.0000
  H   H69       1.0  0.23277  0.63107  0.55750  1.0000
  H   H70       1.0  0.23850  0.66652  0.51382  1.0000
  H   H71       1.0  0.23599  0.58945  0.46986  1.0000
  C   C117      1.0  0.41119  0.65217  0.32870  1.0000
  C   C118      1.0  0.40053  0.63530  0.41162  1.0000
  C   C119      1.0  0.36901  0.60563  0.42011  1.0000
  C   C120      1.0  0.34898  0.59281  0.34198  1.0000
  N   N36       1.0  0.35798  0.59251  0.50279  1.0000
  H   H72       1.0  0.37193  0.60208  0.55550  1.0000
  H   H73       1.0  0.33644  0.57253  0.51166  1.0000
  H   H74       1.0  0.41363  0.64696  0.46833  1.0000
  C   C121      1.0  0.98379  0.24133  0.35092  1.0000
  C   C122      1.0  0.92995  0.18753  0.33009  1.0000
  C   C123      1.0  0.96532  0.20576  0.33584  1.0000
  C   C124      1.0  0.51994  0.26119  0.35144  1.0000
  C   C125      1.0  0.53844  0.29682  0.33723  1.0000
  C   C126      1.0  0.57384  0.31511  0.33257  1.0000
  O   O25       1.0  0.97989  0.18733  0.31411  1.0000
  O   O26       1.0  0.52392  0.31527  0.31527  1.0000
  H   H75       1.0  0.48572  0.19144  0.25029  1.0000
  H   H76       1.0  0.87252  0.18565  0.26114  1.0000
  H   H77       1.0  0.63155  0.31707  0.26515  1.0000
  C   C127      1.0  0.76168  0.24309  0.35150  1.0000
  C   C128      1.0  0.81557  0.24303  0.33282  1.0000
  C   C129      1.0  0.79730  0.26017  0.33703  1.0000
  C   C130      1.0  0.74185  0.25942  0.35088  1.0000
  C   C131      1.0  0.70625  0.24232  0.33611  1.0000
  C   C132      1.0  0.68807  0.25950  0.32992  1.0000
  O   O27       1.0  0.81580  0.29314  0.31515  1.0000
  O   O28       1.0  0.68770  0.20923  0.31552  1.0000
  H   H78       1.0  0.81192  0.29479  0.25113  1.0000
  H   H79       1.0  0.69156  0.20721  0.25169  1.0000
  H   H80       1.0  0.81757  0.18729  0.26588  1.0000
  H   H81       1.0  0.68633  0.31499  0.25959  1.0000
  C   C133      1.0  0.76015  0.01939  0.35115  1.0000
  C   C134      1.0  0.76017  0.07327  0.33114  1.0000
  C   C135      1.0  0.74302  0.03789  0.33682  1.0000
  C   C136      1.0  0.74388  0.48324  0.35104  1.0000
  C   C137      1.0  0.76102  0.46478  0.33604  1.0000
  C   C138      1.0  0.74389  0.42940  0.33023  1.0000
  O   O29       1.0  0.70995  0.02334  0.31611  1.0000
  O   O30       1.0  0.79401  0.47935  0.31431  1.0000
  H   H82       1.0  0.70797  0.51760  0.25218  1.0000
  H   H83       1.0  0.79573  0.98513  0.25046  1.0000
  H   H84       1.0  0.81565  0.13062  0.26128  1.0000
  H   H85       1.0  0.68828  0.37199  0.26114  1.0000
  N   N37       1.0  0.61068  0.25070  0.26597  1.0000
  N   N38       1.0  0.63822  0.24962  0.25926  1.0000
  N   N39       1.0  0.75253  0.36104  0.26442  1.0000
  N   N40       1.0  0.75375  0.38974  0.25839  1.0000
  N   N41       1.0  0.64219  0.39196  0.26654  1.0000
  N   N42       1.0  0.61347  0.36448  0.26099  1.0000
  N   N43       1.0  0.89256  0.25175  0.26677  1.0000
  N   N44       1.0  0.86499  0.25284  0.26129  1.0000
  N   N45       1.0  0.75121  0.14178  0.26713  1.0000
  N   N46       1.0  0.75024  0.11321  0.26044  1.0000
  N   N47       1.0  0.86154  0.11025  0.26487  1.0000
  N   N48       1.0  0.89016  0.13780  0.25866  1.0000
  C   C139      1.0  0.96361  0.25651  0.36254  1.0000
  C   C140      1.0  0.92897  0.23999  0.34521  1.0000
  C   C141      1.0  0.91236  0.20526  0.32884  1.0000
  H   H86       1.0  0.97389  0.28056  0.38361  1.0000
  O   O31       1.0  0.87825  0.18807  0.32506  1.0000
  C   C142      1.0  0.59146  0.29741  0.33178  1.0000
  C   C143      1.0  0.57479  0.26261  0.34698  1.0000
  C   C144      1.0  0.54007  0.24596  0.36301  1.0000
  O   O32       1.0  0.62559  0.31456  0.32890  1.0000
  H   H87       1.0  0.52975  0.22181  0.38319  1.0000
  C   C145      1.0  0.74645  0.20774  0.36336  1.0000
  C   C146      1.0  0.76306  0.18962  0.34737  1.0000
  C   C147      1.0  0.79786  0.20771  0.33229  1.0000
  H   H88       1.0  0.72233  0.19395  0.38382  1.0000
  O   O33       1.0  0.81502  0.19074  0.32960  1.0000
  C   C148      1.0  0.70586  0.29481  0.32782  1.0000
  C   C149      1.0  0.74058  0.31293  0.34426  1.0000
  C   C150      1.0  0.75708  0.29480  0.36196  1.0000
  O   O34       1.0  0.68875  0.31181  0.32358  1.0000
  H   H89       1.0  0.78114  0.30861  0.38287  1.0000
  C   C151      1.0  0.79553  0.03956  0.36232  1.0000
  C   C152      1.0  0.81361  0.07421  0.34511  1.0000
  C   C153      1.0  0.79548  0.09083  0.32917  1.0000
  H   H90       1.0  0.80936  0.02929  0.38292  1.0000
  O   O35       1.0  0.81246  0.12494  0.32522  1.0000
  C   C154      1.0  0.70857  0.41181  0.32894  1.0000
  C   C155      1.0  0.69044  0.42839  0.34546  1.0000
  C   C156      1.0  0.70853  0.46303  0.36274  1.0000
  O   O36       1.0  0.69166  0.37769  0.32506  1.0000
  H   H91       1.0  0.69473  0.47328  0.38376  1.0000
  C   C157      1.0  0.65270  0.24297  0.32900  1.0000
  C   C158      1.0  0.63598  0.23674  0.41213  1.0000
  C   C159      1.0  0.60634  0.23862  0.42110  1.0000
  C   C160      1.0  0.59335  0.24582  0.34326  1.0000
  N   N49       1.0  0.59330  0.23648  0.50392  1.0000
  H   H92       1.0  0.60293  0.23207  0.55645  1.0000
  H   H93       1.0  0.57329  0.23797  0.51301  1.0000
  H   H94       1.0  0.64772  0.23529  0.46865  1.0000
  C   C161      1.0  0.76053  0.41066  0.32871  1.0000
  C   C162      1.0  0.76674  0.39993  0.41146  1.0000
  C   C163      1.0  0.76474  0.36834  0.41957  1.0000
  C   C164      1.0  0.75734  0.34830  0.34132  1.0000
  N   N50       1.0  0.76684  0.35723  0.50215  1.0000
  H   H95       1.0  0.77131  0.37116  0.55493  1.0000
  H   H96       1.0  0.76512  0.33562  0.51091  1.0000
  H   H97       1.0  0.76824  0.41301  0.46827  1.0000
  C   C165      1.0  0.59258  0.35047  0.33151  1.0000
  C   C166      1.0  0.60344  0.36767  0.41383  1.0000
  C   C167      1.0  0.63508  0.39723  0.42146  1.0000
  C   C168      1.0  0.65507  0.40973  0.34309  1.0000
  N   N51       1.0  0.64629  0.41062  0.50382  1.0000
  H   H98       1.0  0.63246  0.40123  0.55679  1.0000
  H   H99       1.0  0.66799  0.43043  0.51231  1.0000
  H   H100      1.0  0.59046  0.35615  0.47078  1.0000
  C   C169      1.0  0.85093  0.25965  0.33185  1.0000
  C   C170      1.0  0.86807  0.26590  0.41422  1.0000
  C   C171      1.0  0.89773  0.26400  0.42181  1.0000
  C   C172      1.0  0.91036  0.25675  0.34334  1.0000
  N   N52       1.0  0.91114  0.26615  0.50412  1.0000
  H   H101      1.0  0.90174  0.27055  0.55714  1.0000
  H   H102      1.0  0.93111  0.26452  0.51242  1.0000
  H   H103      1.0  0.85657  0.26734  0.47123  1.0000
  C   C173      1.0  0.74360  0.09208  0.33020  1.0000
  C   C174      1.0  0.73738  0.10260  0.41329  1.0000
  C   C175      1.0  0.73918  0.13408  0.42210  1.0000
  C   C176      1.0  0.74623  0.15426  0.34431  1.0000
  N   N53       1.0  0.73707  0.14503  0.50487  1.0000
  H   H104      1.0  0.73277  0.13107  0.55750  1.0000
  H   H105      1.0  0.73850  0.16652  0.51382  1.0000
  H   H106      1.0  0.73599  0.08945  0.46986  1.0000
  C   C177      1.0  0.91119  0.15216  0.32870  1.0000
  C   C178      1.0  0.90053  0.13530  0.41162  1.0000
  C   C179      1.0  0.86901  0.10563  0.42011  1.0000
  C   C180      1.0  0.84898  0.09280  0.34198  1.0000
  N   N54       1.0  0.85799  0.09251  0.50279  1.0000
  H   H107      1.0  0.87193  0.10208  0.55550  1.0000
  H   H108      1.0  0.83644  0.07253  0.51166  1.0000
  H   H109      1.0  0.91363  0.14696  0.46833  1.0000
  C   C181      1.0  0.98379  0.74133  0.35092  1.0000
  C   C182      1.0  0.92995  0.68753  0.33009  1.0000
  C   C183      1.0  0.96532  0.70576  0.33584  1.0000
  C   C184      1.0  0.51994  0.76119  0.35144  1.0000
  C   C185      1.0  0.53844  0.79682  0.33723  1.0000
  C   C186      1.0  0.57384  0.81511  0.33257  1.0000
  O   O37       1.0  0.97989  0.68733  0.31411  1.0000
  O   O38       1.0  0.52392  0.81527  0.31527  1.0000
  H   H110      1.0  0.48572  0.69144  0.25029  1.0000
  H   H111      1.0  0.87252  0.68565  0.26114  1.0000
  H   H112      1.0  0.63154  0.81707  0.26515  1.0000
  C   C187      1.0  0.76168  0.74309  0.35150  1.0000
  C   C188      1.0  0.81557  0.74303  0.33282  1.0000
  C   C189      1.0  0.79730  0.76017  0.33703  1.0000
  C   C190      1.0  0.74185  0.75942  0.35088  1.0000
  C   C191      1.0  0.70625  0.74232  0.33611  1.0000
  C   C192      1.0  0.68807  0.75950  0.32992  1.0000
  O   O39       1.0  0.81579  0.79314  0.31515  1.0000
  O   O40       1.0  0.68770  0.70923  0.31552  1.0000
  H   H113      1.0  0.81192  0.79479  0.25113  1.0000
  H   H114      1.0  0.69156  0.70720  0.25169  1.0000
  H   H115      1.0  0.81757  0.68730  0.26588  1.0000
  H   H116      1.0  0.68633  0.81500  0.25959  1.0000
  C   C193      1.0  0.76015  0.51939  0.35115  1.0000
  C   C194      1.0  0.76017  0.57327  0.33114  1.0000
  C   C195      1.0  0.74302  0.53789  0.33682  1.0000
  C   C196      1.0  0.74388  0.98324  0.35104  1.0000
  C   C197      1.0  0.76101  0.96478  0.33604  1.0000
  C   C198      1.0  0.74389  0.92941  0.33023  1.0000
  O   O41       1.0  0.70995  0.52334  0.31611  1.0000
  O   O42       1.0  0.79401  0.97935  0.31431  1.0000
  H   H117      1.0  0.70797  0.01761  0.25218  1.0000
  H   H118      1.0  0.79573  0.48513  0.25046  1.0000
  H   H119      1.0  0.81565  0.63062  0.26128  1.0000
  H   H120      1.0  0.68828  0.87199  0.26114  1.0000
  N   N55       1.0  0.61068  0.75070  0.26597  1.0000
  N   N56       1.0  0.63822  0.74962  0.25926  1.0000
  N   N57       1.0  0.75253  0.86104  0.26442  1.0000
  N   N58       1.0  0.75375  0.88973  0.25839  1.0000
  N   N59       1.0  0.64219  0.89196  0.26654  1.0000
  N   N60       1.0  0.61347  0.86448  0.26099  1.0000
  N   N61       1.0  0.89255  0.75175  0.26677  1.0000
  N   N62       1.0  0.86499  0.75284  0.26129  1.0000
  N   N63       1.0  0.75121  0.64178  0.26713  1.0000
  N   N64       1.0  0.75023  0.61321  0.26044  1.0000
  N   N65       1.0  0.86153  0.61025  0.26487  1.0000
  N   N66       1.0  0.89016  0.63780  0.25866  1.0000
  C   C199      1.0  0.96361  0.75651  0.36254  1.0000
  C   C200      1.0  0.92897  0.73999  0.34521  1.0000
  C   C201      1.0  0.91236  0.70526  0.32884  1.0000
  H   H121      1.0  0.97389  0.78056  0.38361  1.0000
  O   O43       1.0  0.87825  0.68807  0.32506  1.0000
  C   C202      1.0  0.59146  0.79741  0.33178  1.0000
  C   C203      1.0  0.57479  0.76261  0.34698  1.0000
  C   C204      1.0  0.54007  0.74596  0.36301  1.0000
  O   O44       1.0  0.62559  0.81456  0.32890  1.0000
  H   H122      1.0  0.52975  0.72181  0.38319  1.0000
  C   C205      1.0  0.74645  0.70773  0.36336  1.0000
  C   C206      1.0  0.76306  0.68961  0.34737  1.0000
  C   C207      1.0  0.79786  0.70771  0.33229  1.0000
  H   H123      1.0  0.72233  0.69395  0.38382  1.0000
  O   O45       1.0  0.81501  0.69074  0.32960  1.0000
  C   C208      1.0  0.70586  0.79481  0.32782  1.0000
  C   C209      1.0  0.74059  0.81293  0.34426  1.0000
  C   C210      1.0  0.75708  0.79480  0.36196  1.0000
  O   O46       1.0  0.68875  0.81181  0.32358  1.0000
  H   H124      1.0  0.78114  0.80861  0.38287  1.0000
  C   C211      1.0  0.79553  0.53956  0.36232  1.0000
  C   C212      1.0  0.81361  0.57421  0.34511  1.0000
  C   C213      1.0  0.79547  0.59083  0.32917  1.0000
  H   H125      1.0  0.80936  0.52929  0.38292  1.0000
  O   O47       1.0  0.81246  0.62494  0.32522  1.0000
  C   C214      1.0  0.70857  0.91181  0.32894  1.0000
  C   C215      1.0  0.69043  0.92839  0.34546  1.0000
  C   C216      1.0  0.70853  0.96303  0.36274  1.0000
  O   O48       1.0  0.69166  0.87769  0.32506  1.0000
  H   H126      1.0  0.69473  0.97328  0.38376  1.0000
  C   C217      1.0  0.65270  0.74296  0.32900  1.0000
  C   C218      1.0  0.63597  0.73674  0.41213  1.0000
  C   C219      1.0  0.60634  0.73862  0.42110  1.0000
  C   C220      1.0  0.59335  0.74582  0.34326  1.0000
  N   N67       1.0  0.59330  0.73648  0.50392  1.0000
  H   H127      1.0  0.60292  0.73207  0.55645  1.0000
  H   H128      1.0  0.57329  0.73797  0.51301  1.0000
  H   H129      1.0  0.64772  0.73529  0.46865  1.0000
  C   C221      1.0  0.76052  0.91066  0.32871  1.0000
  C   C222      1.0  0.76673  0.89993  0.41146  1.0000
  C   C223      1.0  0.76474  0.86834  0.41957  1.0000
  C   C224      1.0  0.75733  0.84829  0.34132  1.0000
  N   N68       1.0  0.76684  0.85723  0.50215  1.0000
  H   H130      1.0  0.77131  0.87116  0.55493  1.0000
  H   H131      1.0  0.76512  0.83561  0.51091  1.0000
  H   H132      1.0  0.76824  0.91301  0.46827  1.0000
  C   C225      1.0  0.59258  0.85047  0.33151  1.0000
  C   C226      1.0  0.60344  0.86767  0.41383  1.0000
  C   C227      1.0  0.63508  0.89723  0.42146  1.0000
  C   C228      1.0  0.65507  0.90973  0.34309  1.0000
  N   N69       1.0  0.64629  0.91062  0.50382  1.0000
  H   H133      1.0  0.63246  0.90123  0.55679  1.0000
  H   H134      1.0  0.66799  0.93043  0.51231  1.0000
  H   H135      1.0  0.59046  0.85615  0.47078  1.0000
  C   C229      1.0  0.85093  0.75965  0.33185  1.0000
  C   C230      1.0  0.86807  0.76590  0.41422  1.0000
  C   C231      1.0  0.89773  0.76400  0.42181  1.0000
  C   C232      1.0  0.91035  0.75676  0.34334  1.0000
  N   N70       1.0  0.91114  0.76615  0.50412  1.0000
  H   H136      1.0  0.90174  0.77055  0.55714  1.0000
  H   H137      1.0  0.93110  0.76452  0.51242  1.0000
  H   H138      1.0  0.85657  0.76734  0.47123  1.0000
  C   C233      1.0  0.74360  0.59207  0.33020  1.0000
  C   C234      1.0  0.73738  0.60260  0.41329  1.0000
  C   C235      1.0  0.73918  0.63408  0.42210  1.0000
  C   C236      1.0  0.74623  0.65426  0.34431  1.0000
  N   N71       1.0  0.73707  0.64503  0.50487  1.0000
  H   H139      1.0  0.73277  0.63107  0.55750  1.0000
  H   H140      1.0  0.73850  0.66652  0.51382  1.0000
  H   H141      1.0  0.73599  0.58945  0.46986  1.0000
  C   C237      1.0  0.91119  0.65217  0.32870  1.0000
  C   C238      1.0  0.90053  0.63530  0.41162  1.0000
  C   C239      1.0  0.86901  0.60563  0.42011  1.0000
  C   C240      1.0  0.84898  0.59281  0.34198  1.0000
  N   N72       1.0  0.85798  0.59251  0.50279  1.0000
  H   H142      1.0  0.87192  0.60208  0.55550  1.0000
  H   H143      1.0  0.83644  0.57253  0.51166  1.0000
  H   H144      1.0  0.91363  0.64696  0.46833  1.0000
