data_image0
_chemical_formula_structural       CNHC2H2CNHC2H2CHC2HCHC2HC3H2C3H2C4H3NH2C4H3NH2C2H3C3HC6H3C4H2C4HNH2C4H2C4HNH2C4HNHC4H3NH2C4H3NH2C2H3C3HC6H3C4H2C4HNH2C4H2C4HNH2C4HNHC4H3NH2C4H3NH2C4H3NH2C6H3C6H3C4H2C4HNH2C4H2C4HNH2C4H2C4HNH2C4H3NH2C4H3NH2C4H3NH2C6H3C6H3C4H2C4HNH2C4H2C4HNH2C4H2C4HNH2
_chemical_formula_sum              "C192 N24 H144"
_cell_length_a       44.6116
_cell_length_b       44.6115
_cell_length_c       14.8987
_cell_angle_alpha    90
_cell_angle_beta     90
_cell_angle_gamma    120

_space_group_name_H-M_alt    "P 1"
_space_group_IT_number       1

loop_
  _space_group_symop_operation_xyz
  'x, y, z'

loop_
  _atom_site_type_symbol
  _atom_site_label
  _atom_site_symmetry_multiplicity
  _atom_site_fract_x
  _atom_site_fract_y
  _atom_site_fract_z
  _atom_site_occupancy
  C   C1        1.0  0.04200  0.29347  0.28868  1.0000
  N   N1        1.0  0.02598  0.30554  0.23379  1.0000
  H   H1        1.0  0.03919  0.32568  0.19566  1.0000
  C   C2        1.0  0.02333  0.26423  0.34561  1.0000
  C   C3        1.0  0.04179  0.25341  0.40123  1.0000
  H   H2        1.0  0.02883  0.23262  0.44323  1.0000
  H   H3        1.0  0.00871  0.29328  0.47978  1.0000
  C   C4        1.0  0.04200  0.79348  0.28868  1.0000
  N   N2        1.0  0.02598  0.80554  0.23379  1.0000
  H   H4        1.0  0.03919  0.82568  0.19566  1.0000
  C   C5        1.0  0.02333  0.76423  0.34561  1.0000
  C   C6        1.0  0.04178  0.75340  0.40123  1.0000
  H   H5        1.0  0.02883  0.73262  0.44323  1.0000
  H   H6        1.0  0.00871  0.79328  0.47978  1.0000
  C   C7        1.0  0.07870  0.31081  0.28958  1.0000
  H   H7        1.0  0.09206  0.33145  0.24745  1.0000
  C   C8        1.0  0.09748  0.30026  0.34535  1.0000
  C   C9        1.0  0.07818  0.27111  0.40104  1.0000
  H   H8        1.0  0.09049  0.26285  0.44386  1.0000
  C   C10       1.0  0.07870  0.81080  0.28958  1.0000
  H   H9        1.0  0.09206  0.83145  0.24745  1.0000
  C   C11       1.0  0.09748  0.80026  0.34535  1.0000
  C   C12       1.0  0.07818  0.77111  0.40104  1.0000
  H   H10       1.0  0.09049  0.76285  0.44386  1.0000
  C   C13       1.0  0.13468  0.31852  0.34564  1.0000
  C   C14       1.0  0.15398  0.35518  0.34570  1.0000
  C   C15       1.0  0.15332  0.30050  0.34570  1.0000
  H   H11       1.0  0.13983  0.27401  0.34570  1.0000
  H   H12       1.0  0.14098  0.36867  0.34570  1.0000
  C   C16       1.0  0.13468  0.81852  0.34564  1.0000
  C   C17       1.0  0.15398  0.85518  0.34570  1.0000
  C   C18       1.0  0.15333  0.80050  0.34570  1.0000
  H   H13       1.0  0.13983  0.77401  0.34570  1.0000
  H   H14       1.0  0.14098  0.86867  0.34570  1.0000
  C   C19       1.0  0.19770  0.26960  0.28958  1.0000
  C   C20       1.0  0.21503  0.25023  0.28868  1.0000
  C   C21       1.0  0.28985  0.25117  0.28783  1.0000
  C   C22       1.0  0.30865  0.23358  0.28771  1.0000
  H   H15       1.0  0.29595  0.27030  0.24137  1.0000
  H   H16       1.0  0.32766  0.24023  0.24064  1.0000
  H   H17       1.0  0.17705  0.26231  0.24745  1.0000
  N   N3        1.0  0.20296  0.22214  0.23379  1.0000
  H   H18       1.0  0.18283  0.21522  0.19565  1.0000
  H   H19       1.0  0.21379  0.20792  0.23111  1.0000
  C   C23       1.0  0.23891  0.42980  0.28958  1.0000
  C   C24       1.0  0.25828  0.46650  0.28868  1.0000
  C   C25       1.0  0.25733  0.04038  0.28783  1.0000
  C   C26       1.0  0.27492  0.07677  0.28771  1.0000
  H   H20       1.0  0.23820  0.02735  0.24137  1.0000
  H   H21       1.0  0.26828  0.08914  0.24064  1.0000
  H   H22       1.0  0.24619  0.41644  0.24745  1.0000
  N   N4        1.0  0.28636  0.48252  0.23379  1.0000
  H   H23       1.0  0.29329  0.46931  0.19566  1.0000
  H   H24       1.0  0.30058  0.00757  0.23111  1.0000
  C   C27       1.0  0.46813  0.21866  0.28783  1.0000
  C   C28       1.0  0.43174  0.19986  0.28770  1.0000
  H   H25       1.0  0.48116  0.21256  0.24136  1.0000
  H   H26       1.0  0.41937  0.18084  0.24063  1.0000
  H   H27       1.0  0.50094  0.29472  0.23111  1.0000
  C   C29       1.0  0.19064  0.37383  0.34564  1.0000
  C   C30       1.0  0.20800  0.35453  0.34570  1.0000
  C   C31       1.0  0.18998  0.31786  0.34565  1.0000
  H   H28       1.0  0.23449  0.36752  0.34570  1.0000
  C   C32       1.0  0.37543  0.18884  0.34843  1.0000
  C   C33       1.0  0.35685  0.15219  0.34837  1.0000
  C   C34       1.0  0.32021  0.13308  0.34843  1.0000
  C   C35       1.0  0.30214  0.15165  0.34837  1.0000
  C   C36       1.0  0.31966  0.18829  0.34843  1.0000
  C   C37       1.0  0.35631  0.20636  0.34837  1.0000
  H   H29       1.0  0.27563  0.13819  0.34858  1.0000
  H   H30       1.0  0.36936  0.23288  0.34858  1.0000
  H   H31       1.0  0.37031  0.13914  0.34858  1.0000
  C   C38       1.0  0.20824  0.29892  0.34535  1.0000
  C   C39       1.0  0.24427  0.26080  0.34561  1.0000
  C   C40       1.0  0.25510  0.29008  0.40123  1.0000
  C   C41       1.0  0.23739  0.30877  0.40104  1.0000
  H   H32       1.0  0.27588  0.29791  0.44323  1.0000
  H   H33       1.0  0.24565  0.32934  0.44387  1.0000
  C   C42       1.0  0.26284  0.24252  0.35014  1.0000
  C   C43       1.0  0.30086  0.20653  0.34922  1.0000
  C   C44       1.0  0.27381  0.19805  0.41153  1.0000
  C   C45       1.0  0.25467  0.21560  0.41353  1.0000
  H   H34       1.0  0.26819  0.17888  0.45752  1.0000
  N   N5        1.0  0.22910  0.20597  0.47569  1.0000
  H   H35       1.0  0.21522  0.21714  0.47977  1.0000
  H   H36       1.0  0.22390  0.18750  0.51848  1.0000
  C   C46       1.0  0.20958  0.41102  0.34535  1.0000
  C   C47       1.0  0.24770  0.48517  0.34561  1.0000
  C   C48       1.0  0.21842  0.46671  0.40123  1.0000
  C   C49       1.0  0.19974  0.43033  0.40104  1.0000
  H   H37       1.0  0.21060  0.47968  0.44323  1.0000
  H   H38       1.0  0.17916  0.41801  0.44386  1.0000
  C   C50       1.0  0.26598  0.02202  0.35015  1.0000
  C   C51       1.0  0.30197  0.09602  0.34922  1.0000
  C   C52       1.0  0.31045  0.07747  0.41153  1.0000
  C   C53       1.0  0.29290  0.04077  0.41353  1.0000
  H   H39       1.0  0.32962  0.09101  0.45752  1.0000
  N   N6        1.0  0.30253  0.02483  0.47570  1.0000
  H   H40       1.0  0.29136  0.49979  0.47977  1.0000
  H   H41       1.0  0.32100  0.03810  0.51848  1.0000
  C   C54       1.0  0.48648  0.24566  0.35014  1.0000
  C   C55       1.0  0.41248  0.20765  0.34922  1.0000
  C   C56       1.0  0.43104  0.23469  0.41153  1.0000
  C   C57       1.0  0.46773  0.25383  0.41354  1.0000
  H   H42       1.0  0.41749  0.24031  0.45752  1.0000
  N   N7        1.0  0.48367  0.27940  0.47571  1.0000
  H   H43       1.0  0.47040  0.28460  0.51849  1.0000
  C   C58       1.0  0.19770  0.76960  0.28958  1.0000
  C   C59       1.0  0.21503  0.75023  0.28868  1.0000
  C   C60       1.0  0.28985  0.75117  0.28783  1.0000
  C   C61       1.0  0.30865  0.73358  0.28771  1.0000
  H   H44       1.0  0.29595  0.77031  0.24137  1.0000
  H   H45       1.0  0.32766  0.74023  0.24064  1.0000
  H   H46       1.0  0.17705  0.76231  0.24745  1.0000
  N   N8        1.0  0.20297  0.72214  0.23379  1.0000
  H   H47       1.0  0.18283  0.71522  0.19565  1.0000
  H   H48       1.0  0.21379  0.70792  0.23111  1.0000
  C   C62       1.0  0.23891  0.92980  0.28958  1.0000
  C   C63       1.0  0.25828  0.96650  0.28868  1.0000
  C   C64       1.0  0.25733  0.54038  0.28783  1.0000
  C   C65       1.0  0.27492  0.57677  0.28771  1.0000
  H   H49       1.0  0.23820  0.52735  0.24137  1.0000
  H   H50       1.0  0.26828  0.58914  0.24064  1.0000
  H   H51       1.0  0.24619  0.91644  0.24745  1.0000
  N   N9        1.0  0.28636  0.98252  0.23379  1.0000
  H   H52       1.0  0.29329  0.96931  0.19566  1.0000
  H   H53       1.0  0.30058  0.50757  0.23111  1.0000
  C   C66       1.0  0.46813  0.71866  0.28783  1.0000
  C   C67       1.0  0.43174  0.69986  0.28770  1.0000
  H   H54       1.0  0.48116  0.71256  0.24136  1.0000
  H   H55       1.0  0.41937  0.68084  0.24063  1.0000
  H   H56       1.0  0.50094  0.79472  0.23111  1.0000
  C   C68       1.0  0.19065  0.87383  0.34564  1.0000
  C   C69       1.0  0.20800  0.85453  0.34570  1.0000
  C   C70       1.0  0.18998  0.81786  0.34565  1.0000
  H   H57       1.0  0.23449  0.86753  0.34570  1.0000
  C   C71       1.0  0.37543  0.68884  0.34843  1.0000
  C   C72       1.0  0.35685  0.65219  0.34837  1.0000
  C   C73       1.0  0.32021  0.63308  0.34843  1.0000
  C   C74       1.0  0.30214  0.65165  0.34837  1.0000
  C   C75       1.0  0.31967  0.68829  0.34843  1.0000
  C   C76       1.0  0.35631  0.70637  0.34837  1.0000
  H   H58       1.0  0.27563  0.63819  0.34858  1.0000
  H   H59       1.0  0.36936  0.73288  0.34858  1.0000
  H   H60       1.0  0.37031  0.63914  0.34858  1.0000
  C   C77       1.0  0.20824  0.79892  0.34535  1.0000
  C   C78       1.0  0.24427  0.76080  0.34561  1.0000
  C   C79       1.0  0.25510  0.79008  0.40123  1.0000
  C   C80       1.0  0.23739  0.80877  0.40104  1.0000
  H   H61       1.0  0.27588  0.79791  0.44323  1.0000
  H   H62       1.0  0.24565  0.82935  0.44387  1.0000
  C   C81       1.0  0.26284  0.74252  0.35014  1.0000
  C   C82       1.0  0.30086  0.70653  0.34922  1.0000
  C   C83       1.0  0.27381  0.69805  0.41153  1.0000
  C   C84       1.0  0.25467  0.71561  0.41353  1.0000
  H   H63       1.0  0.26819  0.67888  0.45752  1.0000
  N   N10       1.0  0.22910  0.70597  0.47569  1.0000
  H   H64       1.0  0.21522  0.71714  0.47977  1.0000
  H   H65       1.0  0.22390  0.68750  0.51848  1.0000
  C   C85       1.0  0.20958  0.91102  0.34535  1.0000
  C   C86       1.0  0.24770  0.98517  0.34561  1.0000
  C   C87       1.0  0.21842  0.96672  0.40123  1.0000
  C   C88       1.0  0.19974  0.93033  0.40104  1.0000
  H   H66       1.0  0.21059  0.97968  0.44323  1.0000
  H   H67       1.0  0.17916  0.91801  0.44386  1.0000
  C   C89       1.0  0.26598  0.52202  0.35015  1.0000
  C   C90       1.0  0.30197  0.59602  0.34922  1.0000
  C   C91       1.0  0.31045  0.57747  0.41153  1.0000
  C   C92       1.0  0.29290  0.54077  0.41353  1.0000
  H   H68       1.0  0.32962  0.59101  0.45752  1.0000
  N   N11       1.0  0.30253  0.52483  0.47570  1.0000
  H   H69       1.0  0.29137  0.99979  0.47977  1.0000
  H   H70       1.0  0.32100  0.53810  0.51848  1.0000
  C   C93       1.0  0.48648  0.74566  0.35014  1.0000
  C   C94       1.0  0.41248  0.70765  0.34922  1.0000
  C   C95       1.0  0.43104  0.73469  0.41153  1.0000
  C   C96       1.0  0.46774  0.75383  0.41354  1.0000
  H   H71       1.0  0.41749  0.74031  0.45752  1.0000
  N   N12       1.0  0.48367  0.77940  0.47571  1.0000
  H   H72       1.0  0.47040  0.78460  0.51849  1.0000
  C   C97       1.0  0.69770  0.26960  0.28958  1.0000
  C   C98       1.0  0.71503  0.25023  0.28868  1.0000
  C   C99       1.0  0.78985  0.25117  0.28783  1.0000
  C   C100      1.0  0.80865  0.23358  0.28771  1.0000
  H   H73       1.0  0.79595  0.27030  0.24137  1.0000
  H   H74       1.0  0.82766  0.24023  0.24064  1.0000
  H   H75       1.0  0.67705  0.26231  0.24745  1.0000
  N   N13       1.0  0.70296  0.22214  0.23379  1.0000
  H   H76       1.0  0.68283  0.21522  0.19565  1.0000
  H   H77       1.0  0.71379  0.20792  0.23111  1.0000
  C   C101      1.0  0.73891  0.42980  0.28958  1.0000
  C   C102      1.0  0.75828  0.46650  0.28868  1.0000
  C   C103      1.0  0.75733  0.04038  0.28783  1.0000
  C   C104      1.0  0.77492  0.07677  0.28771  1.0000
  H   H78       1.0  0.73820  0.02735  0.24137  1.0000
  H   H79       1.0  0.76828  0.08914  0.24064  1.0000
  H   H80       1.0  0.74619  0.41644  0.24745  1.0000
  N   N14       1.0  0.78636  0.48252  0.23379  1.0000
  H   H81       1.0  0.79329  0.46931  0.19566  1.0000
  H   H82       1.0  0.80058  0.00757  0.23111  1.0000
  C   C105      1.0  0.57870  0.31081  0.28958  1.0000
  C   C106      1.0  0.54200  0.29347  0.28868  1.0000
  C   C107      1.0  0.96813  0.21866  0.28783  1.0000
  C   C108      1.0  0.93173  0.19986  0.28770  1.0000
  H   H83       1.0  0.98116  0.21256  0.24136  1.0000
  H   H84       1.0  0.91937  0.18084  0.24063  1.0000
  H   H85       1.0  0.59206  0.33145  0.24745  1.0000
  N   N15       1.0  0.52598  0.30554  0.23379  1.0000
  H   H86       1.0  0.53919  0.32568  0.19566  1.0000
  H   H87       1.0  0.00093  0.29472  0.23111  1.0000
  C   C109      1.0  0.63468  0.31852  0.34564  1.0000
  C   C110      1.0  0.65398  0.35518  0.34570  1.0000
  C   C111      1.0  0.69064  0.37383  0.34564  1.0000
  C   C112      1.0  0.70800  0.35453  0.34570  1.0000
  C   C113      1.0  0.68998  0.31786  0.34565  1.0000
  C   C114      1.0  0.65332  0.30050  0.34570  1.0000
  H   H88       1.0  0.73449  0.36752  0.34570  1.0000
  H   H89       1.0  0.63983  0.27401  0.34570  1.0000
  H   H90       1.0  0.64098  0.36867  0.34570  1.0000
  C   C115      1.0  0.87543  0.18884  0.34843  1.0000
  C   C116      1.0  0.85685  0.15219  0.34837  1.0000
  C   C117      1.0  0.82021  0.13308  0.34843  1.0000
  C   C118      1.0  0.80214  0.15165  0.34837  1.0000
  C   C119      1.0  0.81966  0.18829  0.34843  1.0000
  C   C120      1.0  0.85631  0.20636  0.34837  1.0000
  H   H91       1.0  0.77563  0.13819  0.34858  1.0000
  H   H92       1.0  0.86936  0.23288  0.34858  1.0000
  H   H93       1.0  0.87031  0.13914  0.34858  1.0000
  C   C121      1.0  0.70824  0.29892  0.34535  1.0000
  C   C122      1.0  0.74427  0.26080  0.34561  1.0000
  C   C123      1.0  0.75509  0.29008  0.40123  1.0000
  C   C124      1.0  0.73739  0.30877  0.40104  1.0000
  H   H94       1.0  0.77588  0.29791  0.44323  1.0000
  H   H95       1.0  0.74565  0.32934  0.44387  1.0000
  C   C125      1.0  0.76284  0.24252  0.35014  1.0000
  C   C126      1.0  0.80086  0.20653  0.34922  1.0000
  C   C127      1.0  0.77381  0.19805  0.41153  1.0000
  C   C128      1.0  0.75467  0.21560  0.41353  1.0000
  H   H96       1.0  0.76819  0.17888  0.45752  1.0000
  N   N16       1.0  0.72910  0.20597  0.47569  1.0000
  H   H97       1.0  0.71522  0.21714  0.47977  1.0000
  H   H98       1.0  0.72390  0.18750  0.51848  1.0000
  C   C129      1.0  0.70958  0.41102  0.34535  1.0000
  C   C130      1.0  0.74770  0.48517  0.34561  1.0000
  C   C131      1.0  0.71842  0.46671  0.40123  1.0000
  C   C132      1.0  0.69974  0.43033  0.40104  1.0000
  H   H99       1.0  0.71059  0.47968  0.44323  1.0000
  H   H100      1.0  0.67916  0.41801  0.44386  1.0000
  C   C133      1.0  0.76598  0.02202  0.35015  1.0000
  C   C134      1.0  0.80197  0.09602  0.34922  1.0000
  C   C135      1.0  0.81045  0.07747  0.41153  1.0000
  C   C136      1.0  0.79290  0.04077  0.41353  1.0000
  H   H101      1.0  0.82962  0.09101  0.45752  1.0000
  N   N17       1.0  0.80253  0.02483  0.47570  1.0000
  H   H102      1.0  0.79136  0.49979  0.47977  1.0000
  H   H103      1.0  0.82100  0.03810  0.51848  1.0000
  C   C137      1.0  0.59748  0.30026  0.34535  1.0000
  C   C138      1.0  0.52333  0.26423  0.34561  1.0000
  C   C139      1.0  0.54179  0.25341  0.40123  1.0000
  C   C140      1.0  0.57818  0.27111  0.40104  1.0000
  H   H104      1.0  0.52883  0.23262  0.44323  1.0000
  H   H105      1.0  0.59049  0.26285  0.44386  1.0000
  C   C141      1.0  0.98648  0.24566  0.35014  1.0000
  C   C142      1.0  0.91248  0.20765  0.34922  1.0000
  C   C143      1.0  0.93103  0.23469  0.41153  1.0000
  C   C144      1.0  0.96774  0.25383  0.41354  1.0000
  H   H106      1.0  0.91749  0.24031  0.45752  1.0000
  N   N18       1.0  0.98367  0.27940  0.47571  1.0000
  H   H107      1.0  0.50871  0.29328  0.47978  1.0000
  H   H108      1.0  0.97040  0.28460  0.51849  1.0000
  C   C145      1.0  0.69770  0.76960  0.28958  1.0000
  C   C146      1.0  0.71503  0.75023  0.28868  1.0000
  C   C147      1.0  0.78985  0.75117  0.28783  1.0000
  C   C148      1.0  0.80865  0.73358  0.28771  1.0000
  H   H109      1.0  0.79595  0.77031  0.24137  1.0000
  H   H110      1.0  0.82766  0.74023  0.24064  1.0000
  H   H111      1.0  0.67705  0.76231  0.24745  1.0000
  N   N19       1.0  0.70296  0.72214  0.23379  1.0000
  H   H112      1.0  0.68283  0.71522  0.19565  1.0000
  H   H113      1.0  0.71379  0.70792  0.23111  1.0000
  C   C149      1.0  0.73891  0.92980  0.28958  1.0000
  C   C150      1.0  0.75828  0.96650  0.28868  1.0000
  C   C151      1.0  0.75733  0.54038  0.28783  1.0000
  C   C152      1.0  0.77492  0.57677  0.28771  1.0000
  H   H114      1.0  0.73820  0.52735  0.24137  1.0000
  H   H115      1.0  0.76828  0.58914  0.24064  1.0000
  H   H116      1.0  0.74619  0.91644  0.24745  1.0000
  N   N20       1.0  0.78636  0.98252  0.23379  1.0000
  H   H117      1.0  0.79329  0.96931  0.19566  1.0000
  H   H118      1.0  0.80058  0.50757  0.23111  1.0000
  C   C153      1.0  0.57870  0.81080  0.28958  1.0000
  C   C154      1.0  0.54200  0.79348  0.28868  1.0000
  C   C155      1.0  0.96813  0.71866  0.28783  1.0000
  C   C156      1.0  0.93173  0.69986  0.28770  1.0000
  H   H119      1.0  0.98116  0.71256  0.24136  1.0000
  H   H120      1.0  0.91937  0.68084  0.24063  1.0000
  H   H121      1.0  0.59206  0.83145  0.24745  1.0000
  N   N21       1.0  0.52598  0.80554  0.23379  1.0000
  H   H122      1.0  0.53919  0.82568  0.19566  1.0000
  H   H123      1.0  0.00094  0.79472  0.23111  1.0000
  C   C157      1.0  0.63468  0.81852  0.34564  1.0000
  C   C158      1.0  0.65398  0.85518  0.34570  1.0000
  C   C159      1.0  0.69064  0.87383  0.34564  1.0000
  C   C160      1.0  0.70800  0.85453  0.34570  1.0000
  C   C161      1.0  0.68998  0.81786  0.34565  1.0000
  C   C162      1.0  0.65332  0.80050  0.34570  1.0000
  H   H124      1.0  0.73449  0.86753  0.34570  1.0000
  H   H125      1.0  0.63983  0.77401  0.34570  1.0000
  H   H126      1.0  0.64098  0.86867  0.34570  1.0000
  C   C163      1.0  0.87543  0.68884  0.34843  1.0000
  C   C164      1.0  0.85685  0.65219  0.34837  1.0000
  C   C165      1.0  0.82021  0.63308  0.34843  1.0000
  C   C166      1.0  0.80214  0.65165  0.34837  1.0000
  C   C167      1.0  0.81966  0.68829  0.34843  1.0000
  C   C168      1.0  0.85631  0.70637  0.34837  1.0000
  H   H127      1.0  0.77563  0.63819  0.34858  1.0000
  H   H128      1.0  0.86936  0.73288  0.34858  1.0000
  H   H129      1.0  0.87031  0.63914  0.34858  1.0000
  C   C169      1.0  0.70824  0.79892  0.34535  1.0000
  C   C170      1.0  0.74427  0.76080  0.34561  1.0000
  C   C171      1.0  0.75510  0.79008  0.40123  1.0000
  C   C172      1.0  0.73739  0.80877  0.40104  1.0000
  H   H130      1.0  0.77588  0.79791  0.44323  1.0000
  H   H131      1.0  0.74565  0.82935  0.44387  1.0000
  C   C173      1.0  0.76284  0.74252  0.35014  1.0000
  C   C174      1.0  0.80086  0.70653  0.34922  1.0000
  C   C175      1.0  0.77381  0.69805  0.41153  1.0000
  C   C176      1.0  0.75467  0.71561  0.41353  1.0000
  H   H132      1.0  0.76819  0.67888  0.45752  1.0000
  N   N22       1.0  0.72910  0.70597  0.47569  1.0000
  H   H133      1.0  0.71522  0.71714  0.47977  1.0000
  H   H134      1.0  0.72390  0.68750  0.51848  1.0000
  C   C177      1.0  0.70958  0.91102  0.34535  1.0000
  C   C178      1.0  0.74770  0.98517  0.34561  1.0000
  C   C179      1.0  0.71842  0.96672  0.40123  1.0000
  C   C180      1.0  0.69974  0.93033  0.40104  1.0000
  H   H135      1.0  0.71059  0.97968  0.44323  1.0000
  H   H136      1.0  0.67916  0.91801  0.44386  1.0000
  C   C181      1.0  0.76598  0.52202  0.35015  1.0000
  C   C182      1.0  0.80197  0.59602  0.34922  1.0000
  C   C183      1.0  0.81045  0.57747  0.41153  1.0000
  C   C184      1.0  0.79290  0.54077  0.41353  1.0000
  H   H137      1.0  0.82962  0.59101  0.45752  1.0000
  N   N23       1.0  0.80253  0.52483  0.47570  1.0000
  H   H138      1.0  0.79136  0.99979  0.47977  1.0000
  H   H139      1.0  0.82100  0.53810  0.51848  1.0000
  C   C185      1.0  0.59748  0.80026  0.34535  1.0000
  C   C186      1.0  0.52333  0.76423  0.34561  1.0000
  C   C187      1.0  0.54179  0.75340  0.40123  1.0000
  C   C188      1.0  0.57818  0.77111  0.40104  1.0000
  H   H140      1.0  0.52883  0.73262  0.44323  1.0000
  H   H141      1.0  0.59049  0.76285  0.44386  1.0000
  C   C189      1.0  0.98648  0.74566  0.35014  1.0000
  C   C190      1.0  0.91248  0.70765  0.34922  1.0000
  C   C191      1.0  0.93103  0.73469  0.41153  1.0000
  C   C192      1.0  0.96774  0.75383  0.41354  1.0000
  H   H142      1.0  0.91749  0.74031  0.45752  1.0000
  N   N24       1.0  0.98367  0.77940  0.47571  1.0000
  H   H143      1.0  0.50872  0.79328  0.47978  1.0000
  H   H144      1.0  0.97040  0.78460  0.51849  1.0000
