data_image0
_chemical_formula_structural       C3NCH3C3NCH3C3NCH3CNHCNHCNHCNHCNHCNHC24H15C24H15C24H15C24H15C24H15C24H15CNHCNHCNHC3NCH3C3NCH3C3NCH3C3NCH3C3NCH3C3NCH3
_chemical_formula_sum              "C189 N18 H126"
_cell_length_a       61.4125
_cell_length_b       61.4125
_cell_length_c       15.0065
_cell_angle_alpha    90
_cell_angle_beta     90
_cell_angle_gamma    120

_space_group_name_H-M_alt    "P 1"
_space_group_IT_number       1

loop_
  _space_group_symop_operation_xyz
  'x, y, z'

loop_
  _atom_site_type_symbol
  _atom_site_label
  _atom_site_symmetry_multiplicity
  _atom_site_fract_x
  _atom_site_fract_y
  _atom_site_fract_z
  _atom_site_occupancy
  C   C1        1.0  0.98827  0.49384  0.23699  1.0000
  C   C2        1.0  0.97353  0.48661  0.31614  1.0000
  C   C3        1.0  0.02623  0.51353  0.32340  1.0000
  N   N1        1.0  0.01374  0.50696  0.24441  1.0000
  C   C4        1.0  0.97851  0.48723  0.14481  1.0000
  H   H1        1.0  0.95833  0.47419  0.14213  1.0000
  H   H2        1.0  0.98772  0.47832  0.11069  1.0000
  H   H3        1.0  0.98261  0.50430  0.10875  1.0000
  C   C5        1.0  0.50561  0.49430  0.23686  1.0000
  C   C6        1.0  0.51283  0.48677  0.31601  1.0000
  C   C7        1.0  0.48591  0.51255  0.32328  1.0000
  N   N2        1.0  0.49249  0.50665  0.24429  1.0000
  C   C8        1.0  0.51223  0.49115  0.14468  1.0000
  H   H4        1.0  0.52527  0.48402  0.14200  1.0000
  H   H5        1.0  0.52115  0.50929  0.11060  1.0000
  H   H6        1.0  0.49517  0.47820  0.10858  1.0000
  C   C9        1.0  0.50515  0.01119  0.23706  1.0000
  C   C10       1.0  0.51264  0.02592  0.31622  1.0000
  C   C11       1.0  0.48687  0.97323  0.32346  1.0000
  N   N3        1.0  0.49279  0.98571  0.24448  1.0000
  C   C12       1.0  0.50828  0.02095  0.14488  1.0000
  H   H7        1.0  0.51541  0.04112  0.14222  1.0000
  H   H8        1.0  0.49015  0.01173  0.11082  1.0000
  H   H9        1.0  0.52124  0.01685  0.10877  1.0000
  C   C13       1.0  0.27381  0.52578  0.26832  1.0000
  N   N4        1.0  0.25132  0.52482  0.27406  1.0000
  H   H10       1.0  0.27883  0.52157  0.20855  1.0000
  C   C14       1.0  0.47366  0.74788  0.26816  1.0000
  N   N5        1.0  0.47468  0.72638  0.27404  1.0000
  H   H11       1.0  0.47796  0.75715  0.20846  1.0000
  C   C15       1.0  0.25144  0.72571  0.26827  1.0000
  N   N6        1.0  0.27297  0.74820  0.27392  1.0000
  H   H12       1.0  0.24221  0.72068  0.20849  1.0000
  C   C16       1.0  0.72474  0.47396  0.27181  1.0000
  N   N7        1.0  0.74727  0.47503  0.27898  1.0000
  H   H13       1.0  0.71996  0.47824  0.21172  1.0000
  C   C17       1.0  0.52559  0.25073  0.27155  1.0000
  N   N8        1.0  0.52447  0.27215  0.27890  1.0000
  H   H14       1.0  0.52131  0.24168  0.21142  1.0000
  C   C18       1.0  0.74881  0.27469  0.27175  1.0000
  N   N9        1.0  0.72735  0.25218  0.27899  1.0000
  H   H15       1.0  0.75783  0.27947  0.21159  1.0000
  C   C19       1.0  0.17436  0.60406  0.32410  1.0000
  C   C20       1.0  0.14778  0.59151  0.32345  1.0000
  C   C21       1.0  0.13322  0.56502  0.33127  1.0000
  C   C22       1.0  0.14556  0.55088  0.33938  1.0000
  C   C23       1.0  0.17201  0.56296  0.34014  1.0000
  C   C24       1.0  0.18613  0.58939  0.33305  1.0000
  C   C25       1.0  0.10659  0.55271  0.33027  1.0000
  C   C26       1.0  0.09370  0.55504  0.25623  1.0000
  C   C27       1.0  0.06727  0.54206  0.25388  1.0000
  C   C28       1.0  0.05292  0.52687  0.32630  1.0000
  C   C29       1.0  0.06598  0.52504  0.40110  1.0000
  C   C30       1.0  0.09241  0.53750  0.40262  1.0000
  C   C31       1.0  0.18931  0.63080  0.31886  1.0000
  C   C32       1.0  0.18452  0.64652  0.37478  1.0000
  C   C33       1.0  0.20152  0.67259  0.37904  1.0000
  C   C34       1.0  0.22379  0.68357  0.32773  1.0000
  C   C35       1.0  0.22786  0.66819  0.26795  1.0000
  C   C36       1.0  0.21083  0.64223  0.26344  1.0000
  C   C37       1.0  0.18485  0.54928  0.34596  1.0000
  C   C38       1.0  0.19128  0.54119  0.26738  1.0000
  C   C39       1.0  0.20924  0.53335  0.26966  1.0000
  C   C40       1.0  0.22161  0.53379  0.35006  1.0000
  C   C41       1.0  0.21383  0.54058  0.42927  1.0000
  C   C42       1.0  0.19586  0.54839  0.42731  1.0000
  H   H16       1.0  0.19830  0.68323  0.42388  1.0000
  H   H17       1.0  0.16954  0.63892  0.41757  1.0000
  H   H18       1.0  0.24398  0.67548  0.23077  1.0000
  H   H19       1.0  0.21493  0.63156  0.22180  1.0000
  H   H20       1.0  0.18435  0.54267  0.20702  1.0000
  H   H21       1.0  0.21462  0.52929  0.21031  1.0000
  H   H22       1.0  0.19227  0.55512  0.48455  1.0000
  H   H23       1.0  0.22241  0.54160  0.48881  1.0000
  H   H24       1.0  0.10123  0.53555  0.45739  1.0000
  H   H25       1.0  0.05639  0.51404  0.45449  1.0000
  H   H26       1.0  0.05862  0.54408  0.19875  1.0000
  H   H27       1.0  0.10346  0.56572  0.20241  1.0000
  H   H28       1.0  0.13889  0.60178  0.31726  1.0000
  H   H29       1.0  0.20536  0.59808  0.33541  1.0000
  H   H30       1.0  0.13526  0.53167  0.34378  1.0000
  C   C43       1.0  0.39545  0.57023  0.32417  1.0000
  C   C44       1.0  0.40798  0.55618  0.32344  1.0000
  C   C45       1.0  0.43446  0.56810  0.33125  1.0000
  C   C46       1.0  0.44862  0.59457  0.33940  1.0000
  C   C47       1.0  0.43656  0.60895  0.34034  1.0000
  C   C48       1.0  0.41013  0.59666  0.33325  1.0000
  C   C49       1.0  0.44677  0.55376  0.33021  1.0000
  C   C50       1.0  0.44443  0.53855  0.25614  1.0000
  C   C51       1.0  0.45740  0.52509  0.25377  1.0000
  C   C52       1.0  0.47259  0.52592  0.32620  1.0000
  C   C53       1.0  0.47442  0.54080  0.40102  1.0000
  C   C54       1.0  0.46197  0.55478  0.40256  1.0000
  C   C55       1.0  0.36871  0.55845  0.31887  1.0000
  C   C56       1.0  0.35296  0.53795  0.37476  1.0000
  C   C57       1.0  0.32690  0.52890  0.37898  1.0000
  C   C58       1.0  0.31595  0.54024  0.32771  1.0000
  C   C59       1.0  0.33136  0.55968  0.26788  1.0000
  C   C60       1.0  0.35731  0.56857  0.26342  1.0000
  C   C61       1.0  0.45025  0.63547  0.34620  1.0000
  C   C62       1.0  0.45860  0.65006  0.26780  1.0000
  C   C63       1.0  0.46634  0.67584  0.27003  1.0000
  C   C64       1.0  0.46571  0.68772  0.35027  1.0000
  C   C65       1.0  0.45878  0.67313  0.42943  1.0000
  C   C66       1.0  0.45091  0.64734  0.42741  1.0000
  H   H31       1.0  0.31625  0.51508  0.42389  1.0000
  H   H32       1.0  0.36055  0.53056  0.41759  1.0000
  H   H33       1.0  0.32409  0.56855  0.23079  1.0000
  H   H34       1.0  0.36800  0.58334  0.22181  1.0000
  H   H35       1.0  0.45719  0.64166  0.20746  1.0000
  H   H36       1.0  0.47054  0.68530  0.21071  1.0000
  H   H37       1.0  0.44406  0.63699  0.48456  1.0000
  H   H38       1.0  0.45756  0.68063  0.48883  1.0000
  H   H39       1.0  0.46392  0.56554  0.45735  1.0000
  H   H40       1.0  0.48540  0.54219  0.45442  1.0000
  H   H41       1.0  0.45538  0.51443  0.19863  1.0000
  H   H42       1.0  0.43376  0.53765  0.20232  1.0000
  H   H43       1.0  0.39770  0.53702  0.31719  1.0000
  H   H44       1.0  0.40145  0.60721  0.33565  1.0000
  H   H45       1.0  0.46783  0.60347  0.34380  1.0000
  C   C67       1.0  0.42919  0.82508  0.32390  1.0000
  C   C68       1.0  0.44324  0.85166  0.32334  1.0000
  C   C69       1.0  0.43133  0.86623  0.33118  1.0000
  C   C70       1.0  0.40485  0.85391  0.33921  1.0000
  C   C71       1.0  0.39046  0.82746  0.33991  1.0000
  C   C72       1.0  0.40275  0.81333  0.33278  1.0000
  C   C73       1.0  0.44567  0.89287  0.33024  1.0000
  C   C74       1.0  0.46091  0.90575  0.25626  1.0000
  C   C75       1.0  0.47436  0.93219  0.25393  1.0000
  C   C76       1.0  0.47350  0.94653  0.32635  1.0000
  C   C77       1.0  0.45861  0.93347  0.40112  1.0000
  C   C78       1.0  0.44463  0.90704  0.40259  1.0000
  C   C79       1.0  0.44097  0.81012  0.31865  1.0000
  C   C80       1.0  0.46144  0.81486  0.37464  1.0000
  C   C81       1.0  0.47047  0.79783  0.37895  1.0000
  C   C82       1.0  0.45920  0.77559  0.32743  1.0000
  C   C83       1.0  0.43979  0.77158  0.26752  1.0000
  C   C84       1.0  0.43089  0.78863  0.26302  1.0000
  C   C85       1.0  0.36394  0.81465  0.34565  1.0000
  C   C86       1.0  0.34938  0.80827  0.26716  1.0000
  C   C87       1.0  0.32358  0.79030  0.26946  1.0000
  C   C88       1.0  0.31169  0.77792  0.34985  1.0000
  C   C89       1.0  0.32625  0.78569  0.42907  1.0000
  C   C90       1.0  0.35205  0.80358  0.42698  1.0000
  H   H46       1.0  0.48431  0.80101  0.42379  1.0000
  H   H47       1.0  0.46881  0.82982  0.41754  1.0000
  H   H48       1.0  0.43095  0.75546  0.23031  1.0000
  H   H49       1.0  0.41613  0.78455  0.22140  1.0000
  H   H50       1.0  0.35780  0.81514  0.20676  1.0000
  H   H51       1.0  0.31416  0.78490  0.21010  1.0000
  H   H52       1.0  0.36237  0.80722  0.48426  1.0000
  H   H53       1.0  0.31871  0.77711  0.48862  1.0000
  H   H54       1.0  0.43383  0.89822  0.45731  1.0000
  H   H55       1.0  0.45718  0.94306  0.45448  1.0000
  H   H56       1.0  0.48504  0.94084  0.19883  1.0000
  H   H57       1.0  0.46182  0.89600  0.20241  1.0000
  H   H58       1.0  0.46241  0.86054  0.31721  1.0000
  H   H59       1.0  0.39219  0.79409  0.33507  1.0000
  H   H60       1.0  0.39595  0.86422  0.34362  1.0000
  C   C91       1.0  0.82501  0.39677  0.32318  1.0000
  C   C92       1.0  0.85157  0.40963  0.31938  1.0000
  C   C93       1.0  0.86615  0.43621  0.32596  1.0000
  C   C94       1.0  0.85336  0.44992  0.33622  1.0000
  C   C95       1.0  0.82693  0.43756  0.34150  1.0000
  C   C96       1.0  0.81305  0.41112  0.33519  1.0000
  C   C97       1.0  0.89303  0.44880  0.32301  1.0000
  C   C98       1.0  0.90646  0.43899  0.36855  1.0000
  C   C99       1.0  0.93287  0.45129  0.36582  1.0000
  C   C100      1.0  0.94679  0.47387  0.31735  1.0000
  C   C101      1.0  0.93354  0.48405  0.27335  1.0000
  C   C102      1.0  0.90712  0.47159  0.27542  1.0000
  C   C103      1.0  0.81033  0.37001  0.31821  1.0000
  C   C104      1.0  0.81575  0.35453  0.37291  1.0000
  C   C105      1.0  0.79902  0.32842  0.37793  1.0000
  C   C106      1.0  0.77641  0.31716  0.32850  1.0000
  C   C107      1.0  0.77168  0.33232  0.26984  1.0000
  C   C108      1.0  0.78842  0.35833  0.26468  1.0000
  C   C109      1.0  0.81382  0.45093  0.35091  1.0000
  C   C110      1.0  0.80936  0.46192  0.27563  1.0000
  C   C111      1.0  0.79115  0.46943  0.27874  1.0000
  C   C112      1.0  0.77675  0.46605  0.35677  1.0000
  C   C113      1.0  0.78268  0.45656  0.43358  1.0000
  C   C114      1.0  0.80072  0.44887  0.43057  1.0000
  H   H61       1.0  0.80269  0.31793  0.42199  1.0000
  H   H62       1.0  0.83106  0.36233  0.41420  1.0000
  H   H63       1.0  0.75524  0.32484  0.23447  1.0000
  H   H64       1.0  0.78382  0.36886  0.22426  1.0000
  H   H65       1.0  0.81785  0.46268  0.21605  1.0000
  H   H66       1.0  0.78729  0.47569  0.22098  1.0000
  H   H67       1.0  0.80298  0.44020  0.48521  1.0000
  H   H68       1.0  0.77265  0.45335  0.49127  1.0000
  H   H69       1.0  0.89827  0.47929  0.24076  1.0000
  H   H70       1.0  0.94305  0.50065  0.23913  1.0000
  H   H71       1.0  0.94186  0.44352  0.39926  1.0000
  H   H72       1.0  0.89716  0.42292  0.40566  1.0000
  H   H73       1.0  0.86037  0.39942  0.30906  1.0000
  H   H74       1.0  0.79383  0.40218  0.34004  1.0000
  H   H75       1.0  0.86334  0.46908  0.34274  1.0000
  C   C115      1.0  0.60267  0.42809  0.32335  1.0000
  C   C116      1.0  0.58982  0.44179  0.31948  1.0000
  C   C117      1.0  0.56324  0.42980  0.32596  1.0000
  C   C118      1.0  0.54952  0.40330  0.33623  1.0000
  C   C119      1.0  0.56187  0.38922  0.34166  1.0000
  C   C120      1.0  0.58832  0.40178  0.33541  1.0000
  C   C121      1.0  0.55065  0.44409  0.32295  1.0000
  C   C122      1.0  0.56045  0.46734  0.36848  1.0000
  C   C123      1.0  0.54815  0.48144  0.36571  1.0000
  C   C124      1.0  0.52558  0.47278  0.31720  1.0000
  C   C125      1.0  0.51541  0.44935  0.27319  1.0000
  C   C126      1.0  0.52787  0.43539  0.27531  1.0000
  C   C127      1.0  0.62943  0.44016  0.31841  1.0000
  C   C128      1.0  0.64492  0.46107  0.37308  1.0000
  C   C129      1.0  0.67103  0.47046  0.37809  1.0000
  C   C130      1.0  0.68228  0.45909  0.32872  1.0000
  C   C131      1.0  0.66711  0.43917  0.27021  1.0000
  C   C132      1.0  0.64111  0.42992  0.26494  1.0000
  C   C133      1.0  0.54849  0.36274  0.35113  1.0000
  C   C134      1.0  0.53740  0.34729  0.27596  1.0000
  C   C135      1.0  0.52991  0.32157  0.27900  1.0000
  C   C136      1.0  0.53339  0.31057  0.35688  1.0000
  C   C137      1.0  0.54289  0.32597  0.43374  1.0000
  C   C138      1.0  0.55065  0.35172  0.43067  1.0000
  H   H76       1.0  0.68152  0.48464  0.42207  1.0000
  H   H77       1.0  0.63712  0.46860  0.41431  1.0000
  H   H78       1.0  0.67461  0.43024  0.23468  1.0000
  H   H79       1.0  0.63059  0.41480  0.22451  1.0000
  H   H80       1.0  0.53661  0.35502  0.21643  1.0000
  H   H81       1.0  0.52361  0.31145  0.22125  1.0000
  H   H82       1.0  0.55937  0.36266  0.48523  1.0000
  H   H83       1.0  0.54623  0.31918  0.49125  1.0000
  H   H84       1.0  0.52018  0.41884  0.24063  1.0000
  H   H85       1.0  0.49882  0.44226  0.23894  1.0000
  H   H86       1.0  0.55591  0.49819  0.39919  1.0000
  H   H87       1.0  0.57652  0.47411  0.40563  1.0000
  H   H88       1.0  0.60003  0.46080  0.30910  1.0000
  H   H89       1.0  0.59725  0.39150  0.34034  1.0000
  H   H90       1.0  0.53036  0.39412  0.34274  1.0000
  C   C139      1.0  0.57139  0.17445  0.32316  1.0000
  C   C140      1.0  0.55768  0.14789  0.31942  1.0000
  C   C141      1.0  0.56966  0.13330  0.32600  1.0000
  C   C142      1.0  0.59616  0.14608  0.33626  1.0000
  C   C143      1.0  0.61025  0.17251  0.34152  1.0000
  C   C144      1.0  0.59770  0.18641  0.33518  1.0000
  C   C145      1.0  0.55536  0.10643  0.32309  1.0000
  C   C146      1.0  0.53212  0.09300  0.36865  1.0000
  C   C147      1.0  0.51800  0.06659  0.36589  1.0000
  C   C148      1.0  0.52665  0.05266  0.31743  1.0000
  C   C149      1.0  0.55008  0.06590  0.27343  1.0000
  C   C150      1.0  0.56406  0.09233  0.27551  1.0000
  C   C151      1.0  0.55933  0.18915  0.31818  1.0000
  C   C152      1.0  0.53844  0.18376  0.37292  1.0000
  C   C153      1.0  0.52907  0.20050  0.37790  1.0000
  C   C154      1.0  0.54042  0.22310  0.32840  1.0000
  C   C155      1.0  0.56032  0.22782  0.26982  1.0000
  C   C156      1.0  0.56957  0.21106  0.26467  1.0000
  C   C157      1.0  0.63672  0.18560  0.35104  1.0000
  C   C158      1.0  0.65216  0.19007  0.27572  1.0000
  C   C159      1.0  0.67789  0.20828  0.27880  1.0000
  C   C160      1.0  0.68890  0.22270  0.35679  1.0000
  C   C161      1.0  0.67350  0.21674  0.43368  1.0000
  C   C162      1.0  0.64777  0.19870  0.43068  1.0000
  H   H91       1.0  0.51491  0.19684  0.42194  1.0000
  H   H92       1.0  0.53091  0.16845  0.41422  1.0000
  H   H93       1.0  0.56925  0.24422  0.23419  1.0000
  H   H94       1.0  0.58465  0.21561  0.22407  1.0000
  H   H95       1.0  0.64441  0.18162  0.21612  1.0000
  H   H96       1.0  0.68797  0.21219  0.22092  1.0000
  H   H97       1.0  0.63684  0.19642  0.48534  1.0000
  H   H98       1.0  0.68033  0.22677  0.49137  1.0000
  H   H99       1.0  0.58060  0.10117  0.24082  1.0000
  H   H100      1.0  0.55716  0.05639  0.23921  1.0000
  H   H101      1.0  0.50124  0.05761  0.39933  1.0000
  H   H102      1.0  0.52535  0.10231  0.40570  1.0000
  H   H103      1.0  0.53867  0.13910  0.30908  1.0000
  H   H104      1.0  0.60799  0.20562  0.34004  1.0000
  H   H105      1.0  0.60533  0.13609  0.34286  1.0000
  C   C163      1.0  0.98679  0.49337  0.39786  1.0000
  N   N10       1.0  0.01225  0.50633  0.39912  1.0000
  H   H106      1.0  0.97750  0.48903  0.45751  1.0000
  C   C164      1.0  0.50606  0.49325  0.39773  1.0000
  N   N11       1.0  0.49310  0.50576  0.39899  1.0000
  H   H107      1.0  0.51040  0.48831  0.45737  1.0000
  C   C165      1.0  0.50614  0.01266  0.39793  1.0000
  N   N12       1.0  0.49364  0.98720  0.39919  1.0000
  H   H108      1.0  0.51107  0.02195  0.45759  1.0000
  C   C166      1.0  0.28242  0.54087  0.42014  1.0000
  C   C167      1.0  0.29072  0.53448  0.34102  1.0000
  C   C168      1.0  0.24342  0.53114  0.34929  1.0000
  N   N13       1.0  0.25944  0.53906  0.41984  1.0000
  C   C169      1.0  0.29734  0.55190  0.50225  1.0000
  H   H109      1.0  0.31644  0.55521  0.49793  1.0000
  H   H110      1.0  0.28801  0.53927  0.55821  1.0000
  H   H111      1.0  0.29856  0.56993  0.51607  1.0000
  C   C170      1.0  0.45853  0.74142  0.41990  1.0000
  C   C171      1.0  0.46494  0.75610  0.34075  1.0000
  C   C172      1.0  0.46833  0.71217  0.34928  1.0000
  N   N14       1.0  0.46035  0.72026  0.41972  1.0000
  C   C173      1.0  0.44739  0.74525  0.50183  1.0000
  H   H112      1.0  0.44401  0.76100  0.49739  1.0000
  H   H113      1.0  0.45997  0.74857  0.55797  1.0000
  H   H114      1.0  0.42937  0.72840  0.51547  1.0000
  C   C174      1.0  0.25794  0.71715  0.42008  1.0000
  C   C175      1.0  0.24321  0.70882  0.34102  1.0000
  C   C176      1.0  0.28721  0.75614  0.34911  1.0000
  N   N15       1.0  0.27911  0.74011  0.41966  1.0000
  C   C177      1.0  0.25412  0.70222  0.50211  1.0000
  H   H115      1.0  0.23832  0.68312  0.49792  1.0000
  H   H116      1.0  0.25089  0.71155  0.55823  1.0000
  H   H117      1.0  0.27094  0.70099  0.51563  1.0000
  C   C178      1.0  0.71549  0.45861  0.42320  1.0000
  C   C179      1.0  0.70752  0.46513  0.34358  1.0000
  C   C180      1.0  0.75486  0.46860  0.35470  1.0000
  N   N16       1.0  0.73849  0.46050  0.42428  1.0000
  C   C181      1.0  0.70021  0.44745  0.50450  1.0000
  H   H118      1.0  0.68118  0.44430  0.49930  1.0000
  H   H119      1.0  0.70938  0.45991  0.56102  1.0000
  H   H120      1.0  0.69880  0.42932  0.51807  1.0000
  C   C182      1.0  0.54085  0.25673  0.42306  1.0000
  C   C183      1.0  0.53443  0.24233  0.34328  1.0000
  C   C184      1.0  0.53084  0.28613  0.35472  1.0000
  N   N17       1.0  0.53894  0.27784  0.42423  1.0000
  C   C185      1.0  0.55206  0.25265  0.50427  1.0000
  H   H121      1.0  0.55531  0.23683  0.49891  1.0000
  H   H122      1.0  0.53959  0.24927  0.56082  1.0000
  H   H123      1.0  0.57015  0.26941  0.51793  1.0000
  C   C186      1.0  0.74273  0.28398  0.42312  1.0000
  C   C187      1.0  0.75719  0.29193  0.34346  1.0000
  C   C188      1.0  0.71333  0.24459  0.35476  1.0000
  N   N18       1.0  0.72162  0.26098  0.42427  1.0000
  C   C189      1.0  0.74686  0.29928  0.50438  1.0000
  H   H124      1.0  0.76272  0.31831  0.49908  1.0000
  H   H125      1.0  0.75018  0.29014  0.56091  1.0000
  H   H126      1.0  0.73013  0.30066  0.51801  1.0000
