data_image0
_chemical_formula_structural       C4OC4OH4N2C4NCONH2CHC4NCONH2CHC2HC2HN2C3H2CHC3H2CHC4OC4OH4N2C4NCONH2CHC4NCONH2CHC2HC2HN2C3H2CHC3H2CHC4OC4OH4N2C4NCONH2CHC4NCONH2CHC2HC2HN2C3H2CHC3H2CHC4OC4OH4N2C4NCONH2CHC4NCONH2CHC2HC2HN2C3H2CHC3H2CH
_chemical_formula_sum              "C128 O16 H72 N32"
_cell_length_a       31.5542
_cell_length_b       31.5542
_cell_length_c       14.9125
_cell_angle_alpha    90
_cell_angle_beta     90
_cell_angle_gamma    90

_space_group_name_H-M_alt    "P 1"
_space_group_IT_number       1

loop_
  _space_group_symop_operation_xyz
  'x, y, z'

loop_
  _atom_site_type_symbol
  _atom_site_label
  _atom_site_symmetry_multiplicity
  _atom_site_fract_x
  _atom_site_fract_y
  _atom_site_fract_z
  _atom_site_occupancy
  C   C1        1.0  0.00890  0.49695  0.32491  1.0000
  C   C2        1.0  0.07365  0.43222  0.32012  1.0000
  C   C3        1.0  0.08530  0.47526  0.31956  1.0000
  C   C4        1.0  0.05327  0.50655  0.32271  1.0000
  O   O1        1.0  0.10423  0.40166  0.31464  1.0000
  C   C5        1.0  0.47642  0.02942  0.32748  1.0000
  C   C6        1.0  0.43213  0.01998  0.32847  1.0000
  C   C7        1.0  0.39986  0.05114  0.33230  1.0000
  C   C8        1.0  0.41163  0.09420  0.33572  1.0000
  O   O2        1.0  0.38104  0.12479  0.33928  1.0000
  H   H1        1.0  0.11162  0.39425  0.37676  1.0000
  H   H2        1.0  0.37399  0.13184  0.27677  1.0000
  H   H3        1.0  0.06375  0.03693  0.32126  1.0000
  H   H4        1.0  0.42205  0.48954  0.32699  1.0000
  N   N1        1.0  0.35762  0.04266  0.32892  1.0000
  N   N2        1.0  0.12729  0.48325  0.31060  1.0000
  C   C9        1.0  0.99919  0.21642  0.31131  1.0000
  C   C10       1.0  0.03532  0.24064  0.28330  1.0000
  C   C11       1.0  0.03132  0.28559  0.26864  1.0000
  C   C12       1.0  0.06530  0.30515  0.22132  1.0000
  N   N3        1.0  0.10127  0.28382  0.20253  1.0000
  C   C13       1.0  0.10667  0.24332  0.22810  1.0000
  O   O3        1.0  0.06203  0.34243  0.17728  1.0000
  N   N4        1.0  0.07392  0.22204  0.26571  1.0000
  H   H5        1.0  0.13451  0.22828  0.21318  1.0000
  H   H6        1.0  0.07953  0.19257  0.27903  1.0000
  C   C14       1.0  0.99894  0.17145  0.31817  1.0000
  H   H7        1.0  0.02589  0.15475  0.30717  1.0000
  C   C15       1.0  0.28944  0.00667  0.31109  1.0000
  C   C16       1.0  0.26521  0.97057  0.28297  1.0000
  C   C17       1.0  0.22025  0.97458  0.26837  1.0000
  C   C18       1.0  0.20068  0.94066  0.22090  1.0000
  N   N5        1.0  0.22201  0.90470  0.20192  1.0000
  C   C19       1.0  0.26250  0.89926  0.22750  1.0000
  O   O4        1.0  0.16339  0.94397  0.17692  1.0000
  N   N6        1.0  0.28381  0.93198  0.26514  1.0000
  H   H8        1.0  0.27755  0.87147  0.21219  1.0000
  H   H9        1.0  0.31329  0.92637  0.27830  1.0000
  C   C20       1.0  0.33440  0.00688  0.31808  1.0000
  H   H10       1.0  0.35111  0.97995  0.30684  1.0000
  C   C21       1.0  0.99932  0.45259  0.32280  1.0000
  C   C22       1.0  0.03062  0.42056  0.31974  1.0000
  H   H11       1.0  0.46894  0.44210  0.32151  1.0000
  C   C23       1.0  0.45469  0.10598  0.33232  1.0000
  C   C24       1.0  0.48586  0.07372  0.32853  1.0000
  H   H12       1.0  0.01630  0.08380  0.32717  1.0000
  N   N7        1.0  0.46316  0.14823  0.32896  1.0000
  N   N8        1.0  0.02264  0.37856  0.31077  1.0000
  C   C25       1.0  0.99370  0.30761  0.29556  1.0000
  C   C26       1.0  0.95850  0.28280  0.32143  1.0000
  C   C27       1.0  0.96097  0.23857  0.32766  1.0000
  H   H13       1.0  0.93429  0.22289  0.34828  1.0000
  H   H14       1.0  0.93053  0.29683  0.33993  1.0000
  C   C28       1.0  0.98908  0.35221  0.30515  1.0000
  H   H15       1.0  0.95985  0.36495  0.31784  1.0000
  C   C29       1.0  0.19824  0.01217  0.29552  1.0000
  C   C30       1.0  0.22306  0.04735  0.32149  1.0000
  C   C31       1.0  0.26729  0.04486  0.32770  1.0000
  H   H16       1.0  0.28298  0.07154  0.34830  1.0000
  H   H17       1.0  0.20904  0.07532  0.33997  1.0000
  C   C32       1.0  0.15364  0.01681  0.30497  1.0000
  H   H18       1.0  0.14088  0.04602  0.31783  1.0000
  C   C33       1.0  0.00890  0.99696  0.32491  1.0000
  C   C34       1.0  0.07365  0.93222  0.32012  1.0000
  C   C35       1.0  0.08530  0.97526  0.31956  1.0000
  C   C36       1.0  0.05327  0.00655  0.32271  1.0000
  O   O5        1.0  0.10423  0.90166  0.31464  1.0000
  C   C37       1.0  0.47642  0.52942  0.32748  1.0000
  C   C38       1.0  0.43213  0.51998  0.32847  1.0000
  C   C39       1.0  0.39986  0.55114  0.33230  1.0000
  C   C40       1.0  0.41163  0.59420  0.33572  1.0000
  O   O6        1.0  0.38104  0.62479  0.33928  1.0000
  H   H19       1.0  0.11162  0.89426  0.37676  1.0000
  H   H20       1.0  0.37399  0.63184  0.27677  1.0000
  H   H21       1.0  0.06375  0.53693  0.32126  1.0000
  H   H22       1.0  0.42205  0.98954  0.32699  1.0000
  N   N9        1.0  0.35762  0.54266  0.32892  1.0000
  N   N10       1.0  0.12729  0.98325  0.31060  1.0000
  C   C41       1.0  0.99919  0.71642  0.31131  1.0000
  C   C42       1.0  0.03532  0.74064  0.28330  1.0000
  C   C43       1.0  0.03132  0.78559  0.26864  1.0000
  C   C44       1.0  0.06530  0.80514  0.22132  1.0000
  N   N11       1.0  0.10127  0.78382  0.20253  1.0000
  C   C45       1.0  0.10667  0.74332  0.22810  1.0000
  O   O7        1.0  0.06203  0.84243  0.17728  1.0000
  N   N12       1.0  0.07392  0.72203  0.26571  1.0000
  H   H23       1.0  0.13451  0.72828  0.21318  1.0000
  H   H24       1.0  0.07953  0.69257  0.27903  1.0000
  C   C46       1.0  0.99894  0.67145  0.31817  1.0000
  H   H25       1.0  0.02589  0.65475  0.30717  1.0000
  C   C47       1.0  0.28944  0.50667  0.31109  1.0000
  C   C48       1.0  0.26521  0.47057  0.28297  1.0000
  C   C49       1.0  0.22025  0.47458  0.26837  1.0000
  C   C50       1.0  0.20068  0.44066  0.22090  1.0000
  N   N13       1.0  0.22201  0.40470  0.20192  1.0000
  C   C51       1.0  0.26250  0.39926  0.22750  1.0000
  O   O8        1.0  0.16339  0.44397  0.17692  1.0000
  N   N14       1.0  0.28381  0.43198  0.26514  1.0000
  H   H26       1.0  0.27755  0.37147  0.21219  1.0000
  H   H27       1.0  0.31329  0.42637  0.27830  1.0000
  C   C52       1.0  0.33440  0.50688  0.31808  1.0000
  H   H28       1.0  0.35111  0.47995  0.30684  1.0000
  C   C53       1.0  0.99932  0.95259  0.32280  1.0000
  C   C54       1.0  0.03062  0.92056  0.31974  1.0000
  H   H29       1.0  0.46894  0.94209  0.32151  1.0000
  C   C55       1.0  0.45469  0.60598  0.33232  1.0000
  C   C56       1.0  0.48586  0.57372  0.32853  1.0000
  H   H30       1.0  0.01630  0.58380  0.32717  1.0000
  N   N15       1.0  0.46316  0.64823  0.32896  1.0000
  N   N16       1.0  0.02264  0.87856  0.31077  1.0000
  C   C57       1.0  0.99370  0.80761  0.29556  1.0000
  C   C58       1.0  0.95850  0.78280  0.32143  1.0000
  C   C59       1.0  0.96097  0.73857  0.32766  1.0000
  H   H31       1.0  0.93429  0.72289  0.34828  1.0000
  H   H32       1.0  0.93053  0.79683  0.33993  1.0000
  C   C60       1.0  0.98908  0.85221  0.30515  1.0000
  H   H33       1.0  0.95985  0.86495  0.31784  1.0000
  C   C61       1.0  0.19824  0.51217  0.29552  1.0000
  C   C62       1.0  0.22306  0.54735  0.32149  1.0000
  C   C63       1.0  0.26729  0.54486  0.32770  1.0000
  H   H34       1.0  0.28298  0.57154  0.34830  1.0000
  H   H35       1.0  0.20904  0.57532  0.33997  1.0000
  C   C64       1.0  0.15364  0.51681  0.30497  1.0000
  H   H36       1.0  0.14088  0.54601  0.31783  1.0000
  C   C65       1.0  0.50890  0.49695  0.32491  1.0000
  C   C66       1.0  0.57366  0.43222  0.32012  1.0000
  C   C67       1.0  0.58530  0.47526  0.31956  1.0000
  C   C68       1.0  0.55327  0.50655  0.32271  1.0000
  O   O9        1.0  0.60423  0.40166  0.31464  1.0000
  C   C69       1.0  0.97643  0.02942  0.32748  1.0000
  C   C70       1.0  0.93213  0.01998  0.32847  1.0000
  C   C71       1.0  0.89986  0.05114  0.33230  1.0000
  C   C72       1.0  0.91163  0.09420  0.33572  1.0000
  O   O10       1.0  0.88103  0.12479  0.33928  1.0000
  H   H37       1.0  0.61162  0.39425  0.37676  1.0000
  H   H38       1.0  0.87399  0.13184  0.27677  1.0000
  H   H39       1.0  0.56374  0.03693  0.32126  1.0000
  H   H40       1.0  0.92205  0.48954  0.32699  1.0000
  N   N17       1.0  0.85762  0.04266  0.32892  1.0000
  N   N18       1.0  0.62729  0.48325  0.31060  1.0000
  C   C73       1.0  0.49919  0.21642  0.31131  1.0000
  C   C74       1.0  0.53532  0.24064  0.28330  1.0000
  C   C75       1.0  0.53132  0.28559  0.26864  1.0000
  C   C76       1.0  0.56530  0.30515  0.22132  1.0000
  N   N19       1.0  0.60127  0.28382  0.20253  1.0000
  C   C77       1.0  0.60667  0.24332  0.22810  1.0000
  O   O11       1.0  0.56203  0.34243  0.17728  1.0000
  N   N20       1.0  0.57392  0.22204  0.26571  1.0000
  H   H41       1.0  0.63451  0.22828  0.21318  1.0000
  H   H42       1.0  0.57953  0.19257  0.27903  1.0000
  C   C78       1.0  0.49894  0.17145  0.31817  1.0000
  H   H43       1.0  0.52589  0.15475  0.30717  1.0000
  C   C79       1.0  0.78944  0.00667  0.31109  1.0000
  C   C80       1.0  0.76521  0.97057  0.28297  1.0000
  C   C81       1.0  0.72025  0.97458  0.26837  1.0000
  C   C82       1.0  0.70068  0.94066  0.22090  1.0000
  N   N21       1.0  0.72201  0.90470  0.20192  1.0000
  C   C83       1.0  0.76250  0.89926  0.22750  1.0000
  O   O12       1.0  0.66339  0.94397  0.17692  1.0000
  N   N22       1.0  0.78380  0.93198  0.26514  1.0000
  H   H44       1.0  0.77755  0.87147  0.21219  1.0000
  H   H45       1.0  0.81329  0.92637  0.27830  1.0000
  C   C84       1.0  0.83440  0.00688  0.31808  1.0000
  H   H46       1.0  0.85110  0.97995  0.30684  1.0000
  C   C85       1.0  0.49932  0.45259  0.32280  1.0000
  C   C86       1.0  0.53062  0.42056  0.31974  1.0000
  H   H47       1.0  0.96894  0.44210  0.32151  1.0000
  C   C87       1.0  0.95469  0.10598  0.33232  1.0000
  C   C88       1.0  0.98586  0.07372  0.32853  1.0000
  H   H48       1.0  0.51630  0.08380  0.32717  1.0000
  N   N23       1.0  0.96317  0.14823  0.32896  1.0000
  N   N24       1.0  0.52264  0.37856  0.31077  1.0000
  C   C89       1.0  0.49370  0.30761  0.29556  1.0000
  C   C90       1.0  0.45850  0.28280  0.32143  1.0000
  C   C91       1.0  0.46097  0.23857  0.32766  1.0000
  H   H49       1.0  0.43429  0.22289  0.34828  1.0000
  H   H50       1.0  0.43053  0.29683  0.33993  1.0000
  C   C92       1.0  0.48909  0.35221  0.30515  1.0000
  H   H51       1.0  0.45986  0.36495  0.31784  1.0000
  C   C93       1.0  0.69824  0.01217  0.29552  1.0000
  C   C94       1.0  0.72306  0.04735  0.32149  1.0000
  C   C95       1.0  0.76729  0.04486  0.32770  1.0000
  H   H52       1.0  0.78298  0.07154  0.34830  1.0000
  H   H53       1.0  0.70904  0.07532  0.33997  1.0000
  C   C96       1.0  0.65364  0.01681  0.30497  1.0000
  H   H54       1.0  0.64088  0.04602  0.31783  1.0000
  C   C97       1.0  0.50890  0.99696  0.32491  1.0000
  C   C98       1.0  0.57366  0.93222  0.32012  1.0000
  C   C99       1.0  0.58530  0.97526  0.31956  1.0000
  C   C100      1.0  0.55327  0.00655  0.32271  1.0000
  O   O13       1.0  0.60423  0.90166  0.31464  1.0000
  C   C101      1.0  0.97643  0.52942  0.32748  1.0000
  C   C102      1.0  0.93213  0.51998  0.32847  1.0000
  C   C103      1.0  0.89986  0.55114  0.33230  1.0000
  C   C104      1.0  0.91163  0.59420  0.33572  1.0000
  O   O14       1.0  0.88103  0.62479  0.33928  1.0000
  H   H55       1.0  0.61162  0.89426  0.37676  1.0000
  H   H56       1.0  0.87399  0.63184  0.27677  1.0000
  H   H57       1.0  0.56374  0.53693  0.32126  1.0000
  H   H58       1.0  0.92205  0.98954  0.32699  1.0000
  N   N25       1.0  0.85762  0.54266  0.32892  1.0000
  N   N26       1.0  0.62729  0.98325  0.31060  1.0000
  C   C105      1.0  0.49919  0.71642  0.31131  1.0000
  C   C106      1.0  0.53532  0.74064  0.28330  1.0000
  C   C107      1.0  0.53132  0.78559  0.26864  1.0000
  C   C108      1.0  0.56530  0.80514  0.22132  1.0000
  N   N27       1.0  0.60127  0.78382  0.20253  1.0000
  C   C109      1.0  0.60667  0.74332  0.22810  1.0000
  O   O15       1.0  0.56203  0.84243  0.17728  1.0000
  N   N28       1.0  0.57392  0.72203  0.26571  1.0000
  H   H59       1.0  0.63451  0.72828  0.21318  1.0000
  H   H60       1.0  0.57953  0.69257  0.27903  1.0000
  C   C110      1.0  0.49894  0.67145  0.31817  1.0000
  H   H61       1.0  0.52589  0.65475  0.30717  1.0000
  C   C111      1.0  0.78944  0.50667  0.31109  1.0000
  C   C112      1.0  0.76521  0.47057  0.28297  1.0000
  C   C113      1.0  0.72025  0.47458  0.26837  1.0000
  C   C114      1.0  0.70068  0.44066  0.22090  1.0000
  N   N29       1.0  0.72201  0.40470  0.20192  1.0000
  C   C115      1.0  0.76250  0.39926  0.22750  1.0000
  O   O16       1.0  0.66339  0.44397  0.17692  1.0000
  N   N30       1.0  0.78380  0.43198  0.26514  1.0000
  H   H62       1.0  0.77755  0.37147  0.21219  1.0000
  H   H63       1.0  0.81329  0.42637  0.27830  1.0000
  C   C116      1.0  0.83440  0.50688  0.31808  1.0000
  H   H64       1.0  0.85110  0.47995  0.30684  1.0000
  C   C117      1.0  0.49932  0.95259  0.32280  1.0000
  C   C118      1.0  0.53062  0.92056  0.31974  1.0000
  H   H65       1.0  0.96894  0.94209  0.32151  1.0000
  C   C119      1.0  0.95469  0.60598  0.33232  1.0000
  C   C120      1.0  0.98586  0.57372  0.32853  1.0000
  H   H66       1.0  0.51630  0.58380  0.32717  1.0000
  N   N31       1.0  0.96317  0.64823  0.32896  1.0000
  N   N32       1.0  0.52264  0.87856  0.31077  1.0000
  C   C121      1.0  0.49370  0.80761  0.29556  1.0000
  C   C122      1.0  0.45850  0.78280  0.32143  1.0000
  C   C123      1.0  0.46097  0.73857  0.32766  1.0000
  H   H67       1.0  0.43429  0.72289  0.34828  1.0000
  H   H68       1.0  0.43053  0.79683  0.33993  1.0000
  C   C124      1.0  0.48909  0.85221  0.30515  1.0000
  H   H69       1.0  0.45986  0.86495  0.31784  1.0000
  C   C125      1.0  0.69824  0.51217  0.29552  1.0000
  C   C126      1.0  0.72306  0.54735  0.32149  1.0000
  C   C127      1.0  0.76729  0.54486  0.32770  1.0000
  H   H70       1.0  0.78298  0.57154  0.34830  1.0000
  H   H71       1.0  0.70904  0.57532  0.33997  1.0000
  C   C128      1.0  0.65364  0.51681  0.30497  1.0000
  H   H72       1.0  0.64088  0.54601  0.31783  1.0000
