data_image0
_chemical_formula_structural       C3O2H3C3O2HC3OHOH2COHC3OHOHCHC2OHCHC6H3N3C6H3N3H2C3O2HCHC3HOHCHC3OCHC2OHCHC3OHCOHCO2H3C4O2H2CH2CHC3O2H2CHC3O2H2CHC3O2H2CHC4OHOHCHC2OHCHC3OHOHCHCOHC3OHOHCHC3OHOHCHC3OHOHCHC3OHOHCHC3OHOHCHC3OHOHCHC6H3N3C6H3N3C6H2N3C6H3N3C6H3N3C6H3N3C6H2N3C6H3N3C6H3N3C6H3N3HC3OHOHCHOC3OHOHCHC3OHOHCHC3OHOHCHOH2C3O2H2CHCOHC3O2H2CHOHCHC2OHCHC6O2H2CHC3O2H2CHC3O2H2CHC3O2H2CHC3O2H2CH
_chemical_formula_sum              "C216 O72 H144 N36"
_cell_length_a       57.6207
_cell_length_b       57.6207
_cell_length_c       14.7483
_cell_angle_alpha    90
_cell_angle_beta     90
_cell_angle_gamma    120

_space_group_name_H-M_alt    "P 1"
_space_group_IT_number       1

loop_
  _space_group_symop_operation_xyz
  'x, y, z'

loop_
  _atom_site_type_symbol
  _atom_site_label
  _atom_site_symmetry_multiplicity
  _atom_site_fract_x
  _atom_site_fract_y
  _atom_site_fract_z
  _atom_site_occupancy
  C   C1        1.0  0.21609  0.42314  0.34534  1.0000
  C   C2        1.0  0.20798  0.40509  0.27093  1.0000
  C   C3        1.0  0.19423  0.37694  0.28441  1.0000
  O   O1        1.0  0.21353  0.41465  0.18432  1.0000
  O   O2        1.0  0.18585  0.36071  0.21009  1.0000
  H   H1        1.0  0.19734  0.41440  0.16174  1.0000
  H   H2        1.0  0.20082  0.35799  0.19301  1.0000
  H   H3        1.0  0.21732  0.45594  0.28498  1.0000
  C   C4        1.0  0.22413  0.79698  0.34519  1.0000
  C   C5        1.0  0.21418  0.80508  0.27078  1.0000
  C   C6        1.0  0.19978  0.81882  0.28427  1.0000
  O   O3        1.0  0.21821  0.79955  0.18416  1.0000
  O   O4        1.0  0.19192  0.82721  0.20999  1.0000
  H   H4        1.0  0.17425  0.81223  0.19288  1.0000
  C   C7        1.0  0.21610  0.18038  0.34550  1.0000
  C   C8        1.0  0.20361  0.18578  0.27185  1.0000
  C   C9        1.0  0.19396  0.20401  0.28074  1.0000
  O   O5        1.0  0.18355  0.20953  0.20626  1.0000
  H   H5        1.0  0.16451  0.19564  0.20399  1.0000
  O   O6        1.0  0.20170  0.17430  0.18928  1.0000
  H   H6        1.0  0.18377  0.15828  0.18681  1.0000
  H   H7        1.0  0.21077  0.14362  0.30796  1.0000
  C   C10       1.0  0.02712  0.81910  0.28063  1.0000
  O   O7        1.0  0.04305  0.82950  0.20616  1.0000
  H   H8        1.0  0.04820  0.84855  0.20386  1.0000
  C   C11       1.0  0.18741  0.97433  0.34550  1.0000
  C   C12       1.0  0.19281  0.99222  0.27186  1.0000
  C   C13       1.0  0.21104  0.02010  0.28074  1.0000
  O   O8        1.0  0.21656  0.03603  0.20626  1.0000
  H   H9        1.0  0.20267  0.04118  0.20399  1.0000
  O   O9        1.0  0.18133  0.98265  0.18928  1.0000
  H   H10       1.0  0.16531  0.98455  0.18680  1.0000
  C   C14       1.0  0.16792  0.94719  0.33692  1.0000
  H   H11       1.0  0.15066  0.94291  0.30796  1.0000
  C   C15       1.0  0.03874  0.20904  0.34547  1.0000
  C   C16       1.0  0.02084  0.19653  0.27183  1.0000
  O   O10       1.0  0.03042  0.19459  0.18930  1.0000
  H   H12       1.0  0.02850  0.17666  0.18693  1.0000
  C   C17       1.0  0.06588  0.21670  0.33691  1.0000
  H   H13       1.0  0.07017  0.20372  0.30796  1.0000
  C   C18       1.0  0.11224  0.25089  0.35768  1.0000
  C   C19       1.0  0.12801  0.27921  0.35873  1.0000
  C   C20       1.0  0.15642  0.29268  0.35547  1.0000
  C   C21       1.0  0.16899  0.27698  0.35129  1.0000
  C   C22       1.0  0.15406  0.24855  0.35313  1.0000
  C   C23       1.0  0.12574  0.23597  0.35529  1.0000
  H   H14       1.0  0.18942  0.28647  0.34676  1.0000
  H   H15       1.0  0.11477  0.21550  0.35638  1.0000
  H   H16       1.0  0.11857  0.29025  0.35934  1.0000
  N   N1        1.0  0.08539  0.23984  0.36095  1.0000
  N   N2        1.0  0.17188  0.31952  0.35044  1.0000
  N   N3        1.0  0.16515  0.23280  0.34954  1.0000
  C   C24       1.0  0.15574  0.90082  0.35769  1.0000
  C   C25       1.0  0.16827  0.88505  0.35873  1.0000
  C   C26       1.0  0.15333  0.85664  0.35545  1.0000
  C   C27       1.0  0.12506  0.84408  0.35126  1.0000
  C   C28       1.0  0.11156  0.85901  0.35312  1.0000
  C   C29       1.0  0.12731  0.88733  0.35530  1.0000
  H   H17       1.0  0.11411  0.82364  0.34672  1.0000
  H   H18       1.0  0.11781  0.89830  0.35639  1.0000
  H   H19       1.0  0.18876  0.89448  0.35934  1.0000
  N   N4        1.0  0.17154  0.92768  0.36097  1.0000
  N   N5        1.0  0.16470  0.84117  0.35040  1.0000
  N   N6        1.0  0.08472  0.84793  0.34951  1.0000
  H   H20       1.0  0.22254  0.11078  0.35638  1.0000
  H   H21       1.0  0.21829  0.71381  0.36878  1.0000
  C   C30       1.0  0.18690  0.36586  0.37274  1.0000
  C   C31       1.0  0.19514  0.38392  0.44716  1.0000
  C   C32       1.0  0.21008  0.41207  0.43390  1.0000
  O   O11       1.0  0.21627  0.42835  0.50769  1.0000
  O   O12       1.0  0.18890  0.37438  0.53364  1.0000
  H   H22       1.0  0.17262  0.37490  0.55013  1.0000
  C   C33       1.0  0.16917  0.33845  0.38649  1.0000
  H   H23       1.0  0.15356  0.33344  0.42699  1.0000
  C   C34       1.0  0.19600  0.82613  0.37260  1.0000
  C   C35       1.0  0.20583  0.81789  0.44701  1.0000
  C   C36       1.0  0.21904  0.80296  0.43375  1.0000
  H   H24       1.0  0.21457  0.77962  0.53059  1.0000
  O   O13       1.0  0.20252  0.82412  0.53350  1.0000
  H   H25       1.0  0.21930  0.84039  0.55004  1.0000
  C   C37       1.0  0.18634  0.84387  0.38641  1.0000
  H   H26       1.0  0.19695  0.85948  0.42689  1.0000
  C   C38       1.0  0.19618  0.21725  0.36409  1.0000
  C   C39       1.0  0.20869  0.21188  0.43772  1.0000
  C   C40       1.0  0.21833  0.19364  0.42884  1.0000
  O   O14       1.0  0.21059  0.22336  0.52027  1.0000
  C   C41       1.0  0.18844  0.23666  0.37267  1.0000
  H   H27       1.0  0.20146  0.25404  0.40088  1.0000
  C   C42       1.0  0.03814  0.81691  0.36402  1.0000
  C   C43       1.0  0.02025  0.80439  0.43764  1.0000
  O   O15       1.0  0.02983  0.80249  0.52020  1.0000
  H   H28       1.0  0.02800  0.78459  0.52256  1.0000
  C   C44       1.0  0.06529  0.82464  0.37261  1.0000
  H   H29       1.0  0.06964  0.81161  0.40081  1.0000
  C   C45       1.0  0.22428  0.03112  0.36410  1.0000
  C   C46       1.0  0.21891  0.01323  0.43773  1.0000
  C   C47       1.0  0.20067  0.98535  0.42884  1.0000
  O   O16       1.0  0.19516  0.96944  0.50334  1.0000
  H   H30       1.0  0.20906  0.96431  0.50567  1.0000
  C   C48       1.0  0.02771  0.21132  0.42876  1.0000
  O   O17       1.0  0.04363  0.22175  0.50324  1.0000
  H   H31       1.0  0.04876  0.24079  0.50548  1.0000
  C   C49       1.0  0.21517  0.60976  0.37131  1.0000
  O   O18       1.0  0.19186  0.60233  0.41648  1.0000
  O   O19       1.0  0.20687  0.56508  0.39312  1.0000
  H   H32       1.0  0.17769  0.59553  0.37015  1.0000
  H   H33       1.0  0.21178  0.56533  0.45713  1.0000
  H   H34       1.0  0.20549  0.65088  0.38329  1.0000
  C   C50       1.0  0.22662  0.45061  0.33016  1.0000
  C   C51       1.0  0.58991  0.78892  0.34536  1.0000
  C   C52       1.0  0.60794  0.79885  0.27091  1.0000
  C   C53       1.0  0.63610  0.81327  0.28433  1.0000
  O   O20       1.0  0.59837  0.79482  0.18431  1.0000
  O   O21       1.0  0.65231  0.82110  0.20999  1.0000
  H   H35       1.0  0.59862  0.77888  0.16176  1.0000
  H   H36       1.0  0.65504  0.83879  0.19291  1.0000
  C   C54       1.0  0.56245  0.77197  0.33022  1.0000
  H   H37       1.0  0.55711  0.75731  0.28517  1.0000
  H   H38       1.0  0.23415  0.81574  0.16161  1.0000
  C   C55       1.0  0.24105  0.78643  0.33002  1.0000
  H   H39       1.0  0.25569  0.79571  0.28488  1.0000
  C   C56       1.0  0.80403  0.58289  0.34527  1.0000
  C   C57       1.0  0.81213  0.60093  0.27085  1.0000
  C   C58       1.0  0.82588  0.62909  0.28431  1.0000
  O   O22       1.0  0.80661  0.59137  0.18423  1.0000
  O   O23       1.0  0.83427  0.64532  0.21002  1.0000
  H   H40       1.0  0.82280  0.59162  0.16170  1.0000
  H   H41       1.0  0.81929  0.64801  0.19285  1.0000
  C   C59       1.0  0.79347  0.55542  0.33009  1.0000
  H   H42       1.0  0.80275  0.55007  0.28491  1.0000
  C   C60       1.0  0.43018  0.21710  0.34534  1.0000
  C   C61       1.0  0.41213  0.20716  0.27093  1.0000
  C   C62       1.0  0.38398  0.19275  0.28440  1.0000
  O   O24       1.0  0.42169  0.21118  0.18431  1.0000
  O   O25       1.0  0.36775  0.18491  0.21009  1.0000
  H   H43       1.0  0.42144  0.22711  0.16173  1.0000
  H   H44       1.0  0.36503  0.16723  0.19300  1.0000
  C   C63       1.0  0.45764  0.23403  0.33015  1.0000
  H   H45       1.0  0.46298  0.24867  0.28498  1.0000
  C   C64       1.0  0.79595  0.20905  0.34535  1.0000
  C   C65       1.0  0.80589  0.20095  0.27090  1.0000
  C   C66       1.0  0.82030  0.18721  0.28432  1.0000
  O   O26       1.0  0.80185  0.20649  0.18430  1.0000
  O   O27       1.0  0.82813  0.17883  0.20998  1.0000
  H   H46       1.0  0.78591  0.19030  0.16176  1.0000
  H   H47       1.0  0.84582  0.19379  0.19291  1.0000
  C   C67       1.0  0.77900  0.21957  0.33022  1.0000
  H   H48       1.0  0.76434  0.21024  0.28517  1.0000
  C   C68       1.0  0.22375  0.16089  0.33692  1.0000
  C   C69       1.0  0.83271  0.03171  0.34545  1.0000
  C   C70       1.0  0.82732  0.01381  0.27181  1.0000
  C   C71       1.0  0.80909  0.98593  0.28069  1.0000
  O   O28       1.0  0.80359  0.97000  0.20624  1.0000
  H   H49       1.0  0.81748  0.96485  0.20404  1.0000
  O   O29       1.0  0.83883  0.02338  0.18927  1.0000
  H   H50       1.0  0.85485  0.02147  0.18688  1.0000
  C   C72       1.0  0.85220  0.05885  0.33687  1.0000
  H   H51       1.0  0.86945  0.06314  0.30785  1.0000
  C   C73       1.0  0.98135  0.79698  0.34539  1.0000
  C   C74       1.0  0.99924  0.80946  0.27173  1.0000
  O   O30       1.0  0.98967  0.81134  0.18914  1.0000
  H   H52       1.0  0.99157  0.82927  0.18661  1.0000
  C   C75       1.0  0.95420  0.78931  0.33677  1.0000
  H   H53       1.0  0.94991  0.80227  0.30770  1.0000
  C   C76       1.0  0.80399  0.82566  0.34541  1.0000
  C   C77       1.0  0.81646  0.82024  0.27173  1.0000
  C   C78       1.0  0.82611  0.80201  0.28060  1.0000
  O   O31       1.0  0.83650  0.79648  0.20611  1.0000
  H   H54       1.0  0.85554  0.81036  0.20379  1.0000
  O   O32       1.0  0.81834  0.83170  0.18914  1.0000
  H   H55       1.0  0.83627  0.84772  0.18659  1.0000
  C   C79       1.0  0.79634  0.84515  0.33683  1.0000
  H   H56       1.0  0.80932  0.86240  0.30784  1.0000
  C   C80       1.0  0.99297  0.18690  0.28070  1.0000
  O   O33       1.0  0.97704  0.17646  0.20624  1.0000
  H   H57       1.0  0.97189  0.15742  0.20406  1.0000
  C   C81       1.0  0.24736  0.59656  0.31548  1.0000
  C   C82       1.0  0.26333  0.62324  0.28298  1.0000
  C   C83       1.0  0.25599  0.64300  0.29743  1.0000
  O   O34       1.0  0.27166  0.66751  0.25861  1.0000
  H   H58       1.0  0.28933  0.67560  0.28814  1.0000
  O   O35       1.0  0.28648  0.63095  0.23569  1.0000
  H   H59       1.0  0.30094  0.63713  0.28093  1.0000
  C   C84       1.0  0.25717  0.57849  0.30537  1.0000
  H   H60       1.0  0.27489  0.58591  0.27146  1.0000
  C   C85       1.0  0.41650  0.64677  0.31535  1.0000
  C   C86       1.0  0.38982  0.63607  0.28288  1.0000
  C   C87       1.0  0.37005  0.60898  0.29729  1.0000
  O   O36       1.0  0.34554  0.60017  0.25851  1.0000
  H   H61       1.0  0.33746  0.60973  0.28814  1.0000
  O   O37       1.0  0.38213  0.65153  0.23561  1.0000
  H   H62       1.0  0.37594  0.65980  0.28086  1.0000
  C   C88       1.0  0.43458  0.67466  0.30533  1.0000
  H   H63       1.0  0.42716  0.68496  0.27146  1.0000
  C   C89       1.0  0.36624  0.76565  0.31549  1.0000
  C   C90       1.0  0.37693  0.74964  0.28319  1.0000
  C   C91       1.0  0.40402  0.75696  0.29771  1.0000
  O   O38       1.0  0.41283  0.74125  0.25903  1.0000
  H   H64       1.0  0.40327  0.72362  0.28877  1.0000
  O   O39       1.0  0.36147  0.72646  0.23606  1.0000
  H   H65       1.0  0.35320  0.71204  0.28139  1.0000
  C   C92       1.0  0.33835  0.75583  0.30543  1.0000
  H   H66       1.0  0.32805  0.73810  0.27162  1.0000
  C   C93       1.0  0.77270  0.40946  0.31551  1.0000
  C   C94       1.0  0.75670  0.38277  0.28311  1.0000
  C   C95       1.0  0.76403  0.36301  0.29755  1.0000
  O   O40       1.0  0.74832  0.33848  0.25887  1.0000
  H   H67       1.0  0.73068  0.33041  0.28860  1.0000
  O   O41       1.0  0.73352  0.37505  0.23599  1.0000
  H   H68       1.0  0.71909  0.36889  0.28132  1.0000
  C   C96       1.0  0.76289  0.42754  0.30546  1.0000
  H   H69       1.0  0.74516  0.42011  0.27164  1.0000
  C   C97       1.0  0.60361  0.35924  0.31552  1.0000
  C   C98       1.0  0.63029  0.36994  0.28311  1.0000
  C   C99       1.0  0.65005  0.39704  0.29758  1.0000
  O   O42       1.0  0.67457  0.40587  0.25885  1.0000
  H   H70       1.0  0.68265  0.39630  0.28847  1.0000
  O   O43       1.0  0.63801  0.35449  0.23589  1.0000
  H   H71       1.0  0.64418  0.34622  0.28119  1.0000
  C   C100      1.0  0.58553  0.33136  0.30541  1.0000
  H   H72       1.0  0.59296  0.32106  0.27152  1.0000
  C   C101      1.0  0.65380  0.24031  0.31536  1.0000
  C   C102      1.0  0.64311  0.25629  0.28288  1.0000
  C   C103      1.0  0.61601  0.24896  0.29730  1.0000
  O   O44       1.0  0.60720  0.26466  0.25851  1.0000
  H   H73       1.0  0.61676  0.28231  0.28812  1.0000
  O   O45       1.0  0.65856  0.27944  0.23560  1.0000
  H   H74       1.0  0.66683  0.29390  0.28085  1.0000
  C   C104      1.0  0.68169  0.25012  0.30533  1.0000
  H   H75       1.0  0.69200  0.26784  0.27144  1.0000
  C   C105      1.0  0.76216  0.85733  0.35762  1.0000
  C   C106      1.0  0.73385  0.84479  0.35876  1.0000
  C   C107      1.0  0.72037  0.85972  0.35535  1.0000
  C   C108      1.0  0.73609  0.88800  0.35124  1.0000
  C   C109      1.0  0.76451  0.90150  0.35309  1.0000
  C   C110      1.0  0.77709  0.88576  0.35526  1.0000
  H   H76       1.0  0.72660  0.89894  0.34669  1.0000
  H   H77       1.0  0.79756  0.89525  0.35632  1.0000
  H   H78       1.0  0.72280  0.82430  0.35927  1.0000
  N   N7        1.0  0.77321  0.84153  0.36091  1.0000
  N   N8        1.0  0.69354  0.84835  0.35039  1.0000
  N   N9        1.0  0.78027  0.92834  0.34948  1.0000
  C   C111      1.0  0.90785  0.75513  0.35762  1.0000
  C   C112      1.0  0.89208  0.72681  0.35874  1.0000
  C   C113      1.0  0.86367  0.71334  0.35532  1.0000
  C   C114      1.0  0.85110  0.72905  0.35120  1.0000
  C   C115      1.0  0.86603  0.75748  0.35307  1.0000
  C   C116      1.0  0.89434  0.77005  0.35526  1.0000
  H   H79       1.0  0.83067  0.71956  0.34664  1.0000
  H   H80       1.0  0.90532  0.79053  0.35633  1.0000
  H   H81       1.0  0.90151  0.71577  0.35926  1.0000
  N   N10       1.0  0.93470  0.76618  0.36093  1.0000
  N   N11       1.0  0.84821  0.68651  0.35033  1.0000
  N   N12       1.0  0.85494  0.77324  0.34946  1.0000
  C   C117      1.0  0.25794  0.14871  0.35768  1.0000
  C   C118      1.0  0.28625  0.16125  0.35873  1.0000
  C   C119      1.0  0.29972  0.14632  0.35547  1.0000
  C   C120      1.0  0.28401  0.11804  0.35128  1.0000
  C   C121      1.0  0.25558  0.10454  0.35313  1.0000
  C   C122      1.0  0.24301  0.12028  0.35529  1.0000
  H   H82       1.0  0.29350  0.10710  0.34675  1.0000
  H   H83       1.0  0.29730  0.18174  0.35934  1.0000
  N   N13       1.0  0.24689  0.16451  0.36095  1.0000
  N   N14       1.0  0.32656  0.15769  0.35044  1.0000
  N   N15       1.0  0.23983  0.07770  0.34953  1.0000
  C   C123      1.0  0.86436  0.10521  0.35762  1.0000
  C   C124      1.0  0.85182  0.12097  0.35871  1.0000
  C   C125      1.0  0.86675  0.14938  0.35534  1.0000
  C   C126      1.0  0.89503  0.16195  0.35122  1.0000
  C   C127      1.0  0.90853  0.14703  0.35309  1.0000
  C   C128      1.0  0.89279  0.11872  0.35526  1.0000
  H   H84       1.0  0.90597  0.18239  0.34668  1.0000
  H   H85       1.0  0.90229  0.10774  0.35634  1.0000
  H   H86       1.0  0.83133  0.11154  0.35928  1.0000
  N   N16       1.0  0.84857  0.07836  0.36093  1.0000
  N   N17       1.0  0.85537  0.16485  0.35038  1.0000
  N   N18       1.0  0.93537  0.15812  0.34948  1.0000
  C   C129      1.0  0.26017  0.53868  0.34164  1.0000
  C   C130      1.0  0.24641  0.51048  0.35304  1.0000
  C   C131      1.0  0.26035  0.49594  0.36043  1.0000
  C   C132      1.0  0.28879  0.51043  0.36196  1.0000
  C   C133      1.0  0.30306  0.53856  0.35204  1.0000
  C   C134      1.0  0.28851  0.55197  0.34208  1.0000
  H   H87       1.0  0.29924  0.50048  0.36872  1.0000
  H   H88       1.0  0.29905  0.57234  0.34333  1.0000
  H   H89       1.0  0.22592  0.50035  0.35425  1.0000
  N   N19       1.0  0.24677  0.55272  0.33508  1.0000
  N   N20       1.0  0.24798  0.46914  0.36878  1.0000
  N   N21       1.0  0.33004  0.55456  0.35231  1.0000
  C   C135      1.0  0.47438  0.71745  0.34176  1.0000
  C   C136      1.0  0.50257  0.73189  0.35311  1.0000
  C   C137      1.0  0.51711  0.76037  0.36054  1.0000
  C   C138      1.0  0.50262  0.77431  0.36211  1.0000
  C   C139      1.0  0.47449  0.76046  0.35227  1.0000
  C   C140      1.0  0.46108  0.73249  0.34241  1.0000
  H   H90       1.0  0.51257  0.79472  0.36882  1.0000
  H   H91       1.0  0.44071  0.72266  0.34357  1.0000
  H   H92       1.0  0.51271  0.72154  0.35418  1.0000
  N   N22       1.0  0.46034  0.69001  0.33508  1.0000
  N   N23       1.0  0.54391  0.77481  0.36879  1.0000
  N   N24       1.0  0.45849  0.77145  0.35261  1.0000
  C   C141      1.0  0.29555  0.75286  0.34170  1.0000
  C   C142      1.0  0.28112  0.76663  0.35302  1.0000
  C   C143      1.0  0.25265  0.75270  0.36042  1.0000
  C   C144      1.0  0.23869  0.72426  0.36202  1.0000
  C   C145      1.0  0.25254  0.70998  0.35217  1.0000
  C   C146      1.0  0.28051  0.72452  0.34222  1.0000
  H   H93       1.0  0.29032  0.71397  0.34354  1.0000
  H   H94       1.0  0.29149  0.78711  0.35417  1.0000
  N   N25       1.0  0.32300  0.76625  0.33509  1.0000
  N   N26       1.0  0.23822  0.76507  0.36872  1.0000
  N   N27       1.0  0.24153  0.68299  0.35248  1.0000
  C   C147      1.0  0.75991  0.46735  0.34182  1.0000
  C   C148      1.0  0.77368  0.49555  0.35315  1.0000
  C   C149      1.0  0.75975  0.51009  0.36056  1.0000
  C   C150      1.0  0.73131  0.49561  0.36214  1.0000
  C   C151      1.0  0.71702  0.46748  0.35230  1.0000
  C   C152      1.0  0.73157  0.45406  0.34246  1.0000
  H   H95       1.0  0.72086  0.50557  0.36883  1.0000
  H   H96       1.0  0.72103  0.43369  0.34363  1.0000
  H   H97       1.0  0.79416  0.50567  0.35419  1.0000
  N   N28       1.0  0.77330  0.45330  0.33515  1.0000
  N   N29       1.0  0.77213  0.53690  0.36882  1.0000
  N   N30       1.0  0.69004  0.45149  0.35261  1.0000
  C   C153      1.0  0.54572  0.28855  0.34166  1.0000
  C   C154      1.0  0.51752  0.27411  0.35303  1.0000
  C   C155      1.0  0.50298  0.24563  0.36042  1.0000
  C   C156      1.0  0.51747  0.23169  0.36197  1.0000
  C   C157      1.0  0.54560  0.24554  0.35207  1.0000
  C   C158      1.0  0.55901  0.27351  0.34211  1.0000
  H   H98       1.0  0.50752  0.21129  0.36873  1.0000
  H   H99       1.0  0.57938  0.28332  0.34338  1.0000
  H   H100      1.0  0.50739  0.28447  0.35423  1.0000
  N   N31       1.0  0.55977  0.31599  0.33509  1.0000
  N   N32       1.0  0.47618  0.23121  0.36877  1.0000
  N   N33       1.0  0.56159  0.23454  0.35235  1.0000
  C   C159      1.0  0.72449  0.25312  0.34176  1.0000
  C   C160      1.0  0.73893  0.23937  0.35313  1.0000
  C   C161      1.0  0.76741  0.25331  0.36053  1.0000
  C   C162      1.0  0.78135  0.28175  0.36207  1.0000
  C   C163      1.0  0.76750  0.29602  0.35221  1.0000
  C   C164      1.0  0.73953  0.28146  0.34235  1.0000
  H   H101      1.0  0.80176  0.29220  0.36876  1.0000
  H   H102      1.0  0.72970  0.29200  0.34348  1.0000
  H   H103      1.0  0.72858  0.21888  0.35419  1.0000
  N   N34       1.0  0.69705  0.23972  0.33508  1.0000
  N   N35       1.0  0.78185  0.24094  0.36878  1.0000
  N   N36       1.0  0.77848  0.32301  0.35248  1.0000
  H   H104      1.0  0.23341  0.43092  0.53074  1.0000
  C   C165      1.0  0.64719  0.81704  0.37263  1.0000
  C   C166      1.0  0.62915  0.80721  0.44708  1.0000
  C   C167      1.0  0.60100  0.79399  0.43390  1.0000
  O   O46       1.0  0.58473  0.78390  0.50771  1.0000
  H   H105      1.0  0.58216  0.79847  0.53077  1.0000
  O   O47       1.0  0.63870  0.81052  0.53355  1.0000
  H   H106      1.0  0.63819  0.79373  0.55005  1.0000
  C   C168      1.0  0.67460  0.82670  0.38637  1.0000
  H   H107      1.0  0.67960  0.81608  0.42676  1.0000
  O   O48       1.0  0.22914  0.79677  0.50756  1.0000
  C   C169      1.0  0.83318  0.64016  0.37265  1.0000
  C   C170      1.0  0.82491  0.62211  0.44708  1.0000
  C   C171      1.0  0.80999  0.59396  0.43383  1.0000
  O   O49       1.0  0.80376  0.57768  0.50763  1.0000
  H   H108      1.0  0.78663  0.57513  0.53064  1.0000
  O   O50       1.0  0.83112  0.63165  0.53357  1.0000
  H   H109      1.0  0.84739  0.63114  0.55017  1.0000
  C   C172      1.0  0.85091  0.66757  0.38642  1.0000
  H   H110      1.0  0.86651  0.67258  0.42693  1.0000
  C   C173      1.0  0.37290  0.18901  0.37273  1.0000
  C   C174      1.0  0.39096  0.19882  0.44715  1.0000
  C   C175      1.0  0.41911  0.21204  0.43389  1.0000
  O   O51       1.0  0.43539  0.22212  0.50767  1.0000
  H   H111      1.0  0.43795  0.20755  0.53073  1.0000
  O   O52       1.0  0.38142  0.19552  0.53363  1.0000
  H   H112      1.0  0.38194  0.21232  0.55013  1.0000
  C   C176      1.0  0.34549  0.17933  0.38649  1.0000
  H   H113      1.0  0.34048  0.18992  0.42699  1.0000
  C   C177      1.0  0.82407  0.17988  0.37262  1.0000
  C   C178      1.0  0.81424  0.18810  0.44707  1.0000
  C   C179      1.0  0.80102  0.20303  0.43388  1.0000
  O   O53       1.0  0.79093  0.20922  0.50770  1.0000
  H   H114      1.0  0.80551  0.22636  0.53076  1.0000
  O   O54       1.0  0.81755  0.18185  0.53354  1.0000
  H   H115      1.0  0.80076  0.16557  0.55003  1.0000
  C   C180      1.0  0.83373  0.16213  0.38634  1.0000
  H   H116      1.0  0.82310  0.14651  0.42674  1.0000
  O   O55       1.0  0.22874  0.18812  0.50333  1.0000
  H   H117      1.0  0.22849  0.23943  0.52263  1.0000
  H   H118      1.0  0.24777  0.20203  0.50567  1.0000
  C   C181      1.0  0.79582  0.97492  0.36401  1.0000
  C   C182      1.0  0.80118  0.99281  0.43763  1.0000
  C   C183      1.0  0.81942  0.02069  0.42875  1.0000
  O   O56       1.0  0.78966  0.98323  0.52014  1.0000
  O   O57       1.0  0.82491  0.03661  0.50322  1.0000
  H   H119      1.0  0.77360  0.98507  0.52240  1.0000
  H   H120      1.0  0.81100  0.04173  0.50548  1.0000
  C   C184      1.0  0.77640  0.94777  0.37258  1.0000
  H   H121      1.0  0.75903  0.94341  0.40085  1.0000
  C   C185      1.0  0.99237  0.79474  0.42874  1.0000
  O   O58       1.0  0.97645  0.78434  0.50323  1.0000
  H   H122      1.0  0.97133  0.76531  0.50558  1.0000
  C   C186      1.0  0.82393  0.78880  0.36399  1.0000
  C   C187      1.0  0.81143  0.79418  0.43764  1.0000
  C   C188      1.0  0.80178  0.81241  0.42876  1.0000
  O   O59       1.0  0.80954  0.78270  0.52020  1.0000
  O   O60       1.0  0.79140  0.81794  0.50329  1.0000
  H   H123      1.0  0.79164  0.76664  0.52260  1.0000
  H   H124      1.0  0.77236  0.80404  0.50567  1.0000
  C   C189      1.0  0.83165  0.76937  0.37253  1.0000
  H   H125      1.0  0.81862  0.75200  0.40077  1.0000
  O   O61       1.0  0.23039  0.02282  0.52028  1.0000
  H   H126      1.0  0.24646  0.02099  0.52265  1.0000
  C   C190      1.0  0.24369  0.05827  0.37268  1.0000
  H   H127      1.0  0.26107  0.06263  0.40090  1.0000
  C   C191      1.0  0.98195  0.18915  0.36401  1.0000
  C   C192      1.0  0.99984  0.20168  0.43763  1.0000
  O   O62       1.0  0.99025  0.20363  0.52014  1.0000
  H   H128      1.0  0.99209  0.22153  0.52239  1.0000
  C   C193      1.0  0.95480  0.18141  0.37257  1.0000
  H   H129      1.0  0.95044  0.19443  0.40081  1.0000
  C   C194      1.0  0.23177  0.63677  0.34264  1.0000
  C   C195      1.0  0.22323  0.59028  0.36086  1.0000
  C   C196      1.0  0.22412  0.65640  0.35873  1.0000
  C   C197      1.0  0.37627  0.59098  0.34250  1.0000
  C   C198      1.0  0.40327  0.60138  0.37120  1.0000
  C   C199      1.0  0.42277  0.62891  0.36076  1.0000
  O   O63       1.0  0.41069  0.58548  0.41634  1.0000
  O   O64       1.0  0.44796  0.63774  0.39304  1.0000
  H   H130      1.0  0.41750  0.57812  0.37000  1.0000
  H   H131      1.0  0.44771  0.64239  0.45706  1.0000
  C   C200      1.0  0.35663  0.56370  0.35856  1.0000
  H   H132      1.0  0.36214  0.55059  0.38317  1.0000
  C   C201      1.0  0.42203  0.78121  0.34273  1.0000
  C   C202      1.0  0.41164  0.79784  0.37120  1.0000
  C   C203      1.0  0.38411  0.78980  0.36078  1.0000
  O   O65       1.0  0.42753  0.82117  0.41628  1.0000
  O   O66       1.0  0.37527  0.80617  0.39291  1.0000
  H   H133      1.0  0.43490  0.83532  0.36989  1.0000
  H   H134      1.0  0.37063  0.80130  0.45695  1.0000
  C   C204      1.0  0.44930  0.78885  0.35886  1.0000
  H   H135      1.0  0.46243  0.80751  0.38312  1.0000
  C   C205      1.0  0.78827  0.36923  0.34261  1.0000
  C   C206      1.0  0.80489  0.39625  0.37116  1.0000
  C   C207      1.0  0.79685  0.41574  0.36075  1.0000
  O   O67       1.0  0.82823  0.40369  0.41620  1.0000
  O   O68       1.0  0.81323  0.44094  0.39291  1.0000
  H   H136      1.0  0.84238  0.41047  0.36979  1.0000
  H   H137      1.0  0.80836  0.44071  0.45696  1.0000
  C   C208      1.0  0.79591  0.34960  0.35870  1.0000
  H   H138      1.0  0.81455  0.35513  0.38308  1.0000
  C   C209      1.0  0.64382  0.41504  0.34271  1.0000
  C   C210      1.0  0.61680  0.40463  0.37128  1.0000
  C   C211      1.0  0.59732  0.37710  0.36084  1.0000
  O   O69       1.0  0.60936  0.42052  0.41638  1.0000
  O   O70       1.0  0.57211  0.36826  0.39300  1.0000
  H   H139      1.0  0.60257  0.42789  0.37000  1.0000
  H   H140      1.0  0.57234  0.36361  0.45704  1.0000
  C   C212      1.0  0.66344  0.44231  0.35882  1.0000
  H   H141      1.0  0.65791  0.45542  0.38323  1.0000
  C   C213      1.0  0.59801  0.22475  0.34253  1.0000
  C   C214      1.0  0.60842  0.20815  0.37123  1.0000
  C   C215      1.0  0.63595  0.21619  0.36078  1.0000
  O   O71       1.0  0.59252  0.18483  0.41639  1.0000
  O   O72       1.0  0.64478  0.19983  0.39306  1.0000
  H   H142      1.0  0.58516  0.17066  0.37006  1.0000
  H   H143      1.0  0.64943  0.20474  0.45709  1.0000
  C   C216      1.0  0.57074  0.21711  0.35859  1.0000
  H   H144      1.0  0.55763  0.19849  0.38321  1.0000
