data_image0
_chemical_formula_structural       HC6O2H2NHNHC6O2H2NHNHC6O2H2NHNHC3H2CH2C3H2CH2C3H2CH2C3H2CH2C3H2CH2C3H2CH2C3H2C3HNHNHC3H2C3H2NHNHC3H2C3H2NHNHC4NCONH2CH2C4NCONH2CH2C4NCONH2CH2C4NCONH2CH2C4NCONH2CH2C4NCONH2CH2
_chemical_formula_sum              "H78 C96 O12 N24"
_cell_length_a       30.0593
_cell_length_b       30.0594
_cell_length_c       14.9836
_cell_angle_alpha    90
_cell_angle_beta     90
_cell_angle_gamma    120

_space_group_name_H-M_alt    "P 1"
_space_group_IT_number       1

loop_
  _space_group_symop_operation_xyz
  'x, y, z'

loop_
  _atom_site_type_symbol
  _atom_site_label
  _atom_site_symmetry_multiplicity
  _atom_site_fract_x
  _atom_site_fract_y
  _atom_site_fract_z
  _atom_site_occupancy
  H   H1        1.0  0.01232  0.43856  0.35555  1.0000
  C   C1        1.0  0.97439  0.49413  0.28858  1.0000
  C   C2        1.0  0.88178  0.43027  0.27930  1.0000
  C   C3        1.0  0.93379  0.44491  0.26241  1.0000
  C   C4        1.0  0.02724  0.50692  0.28853  1.0000
  C   C5        1.0  0.06784  0.55615  0.26247  1.0000
  C   C6        1.0  0.11983  0.57078  0.27948  1.0000
  O   O1        1.0  0.94479  0.41143  0.21967  1.0000
  O   O2        1.0  0.05686  0.58965  0.21973  1.0000
  H   H2        1.0  0.93709  0.38311  0.26110  1.0000
  H   H3        1.0  0.06456  0.61797  0.26118  1.0000
  N   N1        1.0  0.15852  0.62322  0.26981  1.0000
  H   H4        1.0  0.19067  0.62526  0.24176  1.0000
  N   N2        1.0  0.84313  0.37783  0.26965  1.0000
  H   H5        1.0  0.81097  0.37575  0.24159  1.0000
  C   C7        1.0  0.50716  0.48047  0.28843  1.0000
  C   C8        1.0  0.57100  0.45172  0.27927  1.0000
  C   C9        1.0  0.55638  0.48910  0.26231  1.0000
  C   C10       1.0  0.49438  0.52054  0.28859  1.0000
  C   C11       1.0  0.44516  0.51193  0.26242  1.0000
  C   C12       1.0  0.43055  0.54932  0.27937  1.0000
  O   O3        1.0  0.58988  0.53359  0.21958  1.0000
  O   O4        1.0  0.41166  0.46746  0.21966  1.0000
  H   H6        1.0  0.61821  0.55419  0.26100  1.0000
  H   H7        1.0  0.38335  0.44684  0.26111  1.0000
  N   N3        1.0  0.37810  0.53552  0.26973  1.0000
  H   H8        1.0  0.37603  0.56560  0.24164  1.0000
  N   N4        1.0  0.62345  0.46551  0.26961  1.0000
  H   H9        1.0  0.62552  0.43541  0.24155  1.0000
  C   C13       1.0  0.52086  0.02700  0.28858  1.0000
  C   C14       1.0  0.54958  0.11960  0.27944  1.0000
  C   C15       1.0  0.51224  0.06760  0.26245  1.0000
  C   C16       1.0  0.48082  0.97415  0.28845  1.0000
  C   C17       1.0  0.48949  0.93357  0.26237  1.0000
  C   C18       1.0  0.45215  0.88157  0.27935  1.0000
  O   O5        1.0  0.46777  0.05660  0.21964  1.0000
  O   O6        1.0  0.53398  0.94459  0.21965  1.0000
  H   H10       1.0  0.44712  0.06427  0.26106  1.0000
  H   H11       1.0  0.55461  0.93691  0.26110  1.0000
  N   N5        1.0  0.46594  0.84291  0.26967  1.0000
  H   H12       1.0  0.43584  0.81074  0.24166  1.0000
  N   N6        1.0  0.53577  0.15825  0.26977  1.0000
  H   H13       1.0  0.56586  0.19042  0.24175  1.0000
  C   C19       1.0  0.18249  0.44978  0.35049  1.0000
  C   C20       1.0  0.26656  0.49469  0.27724  1.0000
  C   C21       1.0  0.21307  0.47234  0.27418  1.0000
  H   H14       1.0  0.19650  0.47215  0.21438  1.0000
  H   H15       1.0  0.28630  0.50941  0.21914  1.0000
  C   C22       1.0  0.12530  0.42503  0.34094  1.0000
  H   H16       1.0  0.11378  0.42114  0.27075  1.0000
  H   H17       1.0  0.10806  0.38563  0.36535  1.0000
  C   C23       1.0  0.55166  0.73300  0.35025  1.0000
  C   C24       1.0  0.50677  0.77220  0.27708  1.0000
  C   C25       1.0  0.52907  0.74102  0.27399  1.0000
  H   H18       1.0  0.52922  0.72462  0.21418  1.0000
  H   H19       1.0  0.49202  0.77721  0.21902  1.0000
  C   C26       1.0  0.57636  0.70052  0.34066  1.0000
  H   H20       1.0  0.58018  0.69284  0.27046  1.0000
  H   H21       1.0  0.61578  0.72265  0.36498  1.0000
  C   C27       1.0  0.26843  0.81883  0.35036  1.0000
  C   C28       1.0  0.22926  0.73475  0.27722  1.0000
  C   C29       1.0  0.26043  0.78823  0.27411  1.0000
  H   H22       1.0  0.27681  0.80477  0.21429  1.0000
  H   H23       1.0  0.22424  0.71498  0.21915  1.0000
  C   C30       1.0  0.30088  0.87602  0.34075  1.0000
  H   H24       1.0  0.30853  0.88751  0.27055  1.0000
  H   H25       1.0  0.27873  0.89329  0.36510  1.0000
  C   C31       1.0  0.81907  0.55125  0.35025  1.0000
  C   C32       1.0  0.73500  0.50633  0.27706  1.0000
  C   C33       1.0  0.78848  0.52866  0.27397  1.0000
  H   H26       1.0  0.80504  0.52881  0.21418  1.0000
  H   H27       1.0  0.71524  0.49157  0.21899  1.0000
  C   C34       1.0  0.87626  0.57598  0.34068  1.0000
  H   H28       1.0  0.88777  0.57981  0.27049  1.0000
  H   H29       1.0  0.89353  0.61540  0.36500  1.0000
  C   C35       1.0  0.44998  0.26808  0.35041  1.0000
  C   C36       1.0  0.49487  0.22890  0.27721  1.0000
  C   C37       1.0  0.47255  0.26005  0.27412  1.0000
  H   H30       1.0  0.47236  0.27642  0.21431  1.0000
  H   H31       1.0  0.50961  0.22387  0.21913  1.0000
  C   C38       1.0  0.42525  0.30053  0.34084  1.0000
  H   H32       1.0  0.42136  0.30816  0.27063  1.0000
  H   H33       1.0  0.38584  0.27839  0.36525  1.0000
  C   C39       1.0  0.73325  0.18224  0.35048  1.0000
  C   C40       1.0  0.77241  0.26630  0.27720  1.0000
  C   C41       1.0  0.74125  0.21281  0.27416  1.0000
  H   H34       1.0  0.72484  0.19624  0.21438  1.0000
  H   H35       1.0  0.77741  0.28604  0.21911  1.0000
  C   C42       1.0  0.70077  0.12506  0.34096  1.0000
  H   H36       1.0  0.69311  0.11352  0.27078  1.0000
  H   H37       1.0  0.72291  0.10778  0.36535  1.0000
  C   C43       1.0  0.96116  0.52822  0.33031  1.0000
  C   C44       1.0  0.90973  0.51516  0.34379  1.0000
  C   C45       1.0  0.87024  0.46591  0.31916  1.0000
  H   H38       1.0  0.98928  0.56249  0.35552  1.0000
  H   H39       1.0  0.83302  0.45498  0.33472  1.0000
  C   C46       1.0  0.13138  0.53517  0.31945  1.0000
  C   C47       1.0  0.09187  0.48588  0.34386  1.0000
  C   C48       1.0  0.04045  0.47281  0.33025  1.0000
  H   H40       1.0  0.16859  0.54607  0.33493  1.0000
  N   N7        1.0  0.10133  0.45066  0.39057  1.0000
  H   H41       1.0  0.11929  0.46662  0.44984  1.0000
  N   N8        1.0  0.90022  0.55037  0.39041  1.0000
  H   H42       1.0  0.88223  0.53440  0.44964  1.0000
  C   C49       1.0  0.47305  0.43316  0.33015  1.0000
  C   C50       1.0  0.48612  0.39480  0.34372  1.0000
  C   C51       1.0  0.53539  0.40457  0.31921  1.0000
  H   H43       1.0  0.43882  0.42705  0.35551  1.0000
  H   H44       1.0  0.54630  0.37826  0.33477  1.0000
  C   C52       1.0  0.46618  0.59647  0.31928  1.0000
  C   C53       1.0  0.51546  0.60625  0.34373  1.0000
  C   C54       1.0  0.52851  0.56787  0.33023  1.0000
  H   H45       1.0  0.45528  0.62279  0.33479  1.0000
  H   H46       1.0  0.56278  0.57400  0.35542  1.0000
  N   N9        1.0  0.55071  0.65094  0.39038  1.0000
  H   H47       1.0  0.53476  0.65298  0.44963  1.0000
  N   N10       1.0  0.45091  0.35013  0.39046  1.0000
  H   H48       1.0  0.46689  0.34814  0.44970  1.0000
  C   C55       1.0  0.56816  0.04023  0.33040  1.0000
  C   C56       1.0  0.60650  0.09165  0.34399  1.0000
  C   C57       1.0  0.59674  0.13115  0.31937  1.0000
  H   H49       1.0  0.57431  0.01211  0.35559  1.0000
  H   H50       1.0  0.62301  0.16836  0.33500  1.0000
  C   C58       1.0  0.40499  0.86999  0.31931  1.0000
  C   C59       1.0  0.39516  0.90947  0.34373  1.0000
  C   C60       1.0  0.43348  0.96090  0.33015  1.0000
  H   H51       1.0  0.37868  0.83277  0.33478  1.0000
  H   H52       1.0  0.42734  0.98901  0.35546  1.0000
  N   N11       1.0  0.35047  0.89998  0.39043  1.0000
  H   H53       1.0  0.34847  0.88201  0.44968  1.0000
  N   N12       1.0  0.65120  0.10115  0.39067  1.0000
  H   H54       1.0  0.65322  0.11915  0.44988  1.0000
  C   C61       1.0  0.20727  0.45039  0.43223  1.0000
  C   C62       1.0  0.26234  0.47535  0.43644  1.0000
  C   C63       1.0  0.29238  0.49693  0.35732  1.0000
  C   C64       1.0  0.28360  0.47594  0.52184  1.0000
  N   N13       1.0  0.25310  0.45275  0.59299  1.0000
  C   C65       1.0  0.20157  0.42804  0.58672  1.0000
  O   O7        1.0  0.33424  0.49929  0.54126  1.0000
  N   N14       1.0  0.17926  0.42690  0.50767  1.0000
  H   H55       1.0  0.17987  0.41060  0.64207  1.0000
  H   H56       1.0  0.14199  0.40803  0.50721  1.0000
  C   C66       1.0  0.34957  0.51996  0.35634  1.0000
  H   H57       1.0  0.35704  0.49092  0.38533  1.0000
  H   H58       1.0  0.36569  0.55348  0.40038  1.0000
  C   C67       1.0  0.55114  0.75722  0.43199  1.0000
  C   C68       1.0  0.52623  0.78738  0.43624  1.0000
  C   C69       1.0  0.50460  0.79581  0.35718  1.0000
  C   C70       1.0  0.52572  0.80808  0.52165  1.0000
  N   N15       1.0  0.54895  0.80078  0.59274  1.0000
  C   C71       1.0  0.57361  0.77392  0.58643  1.0000
  O   O8        1.0  0.50243  0.83542  0.54110  1.0000
  N   N16       1.0  0.57467  0.75271  0.50737  1.0000
  H   H59       1.0  0.59109  0.76968  0.64174  1.0000
  H   H60       1.0  0.59351  0.73428  0.50688  1.0000
  C   C72       1.0  0.48158  0.82998  0.35624  1.0000
  H   H61       1.0  0.51066  0.86651  0.38514  1.0000
  H   H62       1.0  0.44811  0.81263  0.40039  1.0000
  C   C73       1.0  0.24424  0.79410  0.43212  1.0000
  C   C74       1.0  0.21409  0.73903  0.43638  1.0000
  C   C75       1.0  0.20565  0.70896  0.35731  1.0000
  C   C76       1.0  0.19340  0.71782  0.52179  1.0000
  N   N17       1.0  0.20072  0.74834  0.59289  1.0000
  C   C77       1.0  0.22756  0.79987  0.58657  1.0000
  O   O9        1.0  0.16612  0.66719  0.54127  1.0000
  N   N18       1.0  0.24875  0.82214  0.50750  1.0000
  H   H63       1.0  0.23182  0.82159  0.64188  1.0000
  H   H64       1.0  0.26717  0.85942  0.50701  1.0000
  C   C78       1.0  0.17148  0.65177  0.35639  1.0000
  H   H65       1.0  0.13496  0.64433  0.38533  1.0000
  H   H66       1.0  0.18885  0.63565  0.40049  1.0000
  C   C79       1.0  0.79432  0.55070  0.43199  1.0000
  C   C80       1.0  0.73925  0.52575  0.43623  1.0000
  C   C81       1.0  0.70919  0.50413  0.35714  1.0000
  C   C82       1.0  0.71802  0.52520  0.52164  1.0000
  N   N19       1.0  0.74853  0.54843  0.59275  1.0000
  C   C83       1.0  0.80006  0.57313  0.58644  1.0000
  O   O10       1.0  0.66738  0.50186  0.54108  1.0000
  N   N20       1.0  0.82235  0.57423  0.50739  1.0000
  H   H67       1.0  0.82177  0.59060  0.64177  1.0000
  H   H68       1.0  0.85962  0.59310  0.50691  1.0000
  C   C84       1.0  0.65200  0.48110  0.35620  1.0000
  H   H69       1.0  0.64454  0.51016  0.38515  1.0000
  H   H70       1.0  0.63589  0.44760  0.40028  1.0000
  C   C85       1.0  0.45056  0.24390  0.43216  1.0000
  C   C86       1.0  0.47549  0.21377  0.43640  1.0000
  C   C87       1.0  0.49711  0.20532  0.35730  1.0000
  C   C88       1.0  0.47605  0.19309  0.52181  1.0000
  N   N21       1.0  0.45286  0.20041  0.59293  1.0000
  C   C89       1.0  0.42817  0.22726  0.58664  1.0000
  O   O11       1.0  0.49937  0.16578  0.54124  1.0000
  N   N22       1.0  0.42706  0.24843  0.50757  1.0000
  H   H71       1.0  0.41072  0.23151  0.64197  1.0000
  H   H72       1.0  0.40821  0.26686  0.50711  1.0000
  C   C90       1.0  0.52015  0.17117  0.35636  1.0000
  H   H73       1.0  0.49109  0.13464  0.38529  1.0000
  H   H74       1.0  0.55364  0.18855  0.40047  1.0000
  C   C91       1.0  0.75745  0.20702  0.43220  1.0000
  C   C92       1.0  0.78758  0.26209  0.43639  1.0000
  C   C93       1.0  0.79601  0.29212  0.35727  1.0000
  C   C94       1.0  0.80828  0.28334  0.52178  1.0000
  N   N23       1.0  0.80098  0.25285  0.59292  1.0000
  C   C95       1.0  0.77414  0.20132  0.58667  1.0000
  O   O12       1.0  0.83557  0.33398  0.54118  1.0000
  N   N24       1.0  0.75294  0.17901  0.50763  1.0000
  H   H75       1.0  0.76989  0.17963  0.64202  1.0000
  H   H76       1.0  0.73453  0.14174  0.50719  1.0000
  C   C96       1.0  0.83018  0.34931  0.35627  1.0000
  H   H77       1.0  0.86671  0.35677  0.38522  1.0000
  H   H78       1.0  0.81281  0.36544  0.40034  1.0000
