data_image0
_chemical_formula_structural       C3OH2C3OH2C3HOHC3HOHC3OH2C3OH2C3HOHC3HOHC3OH2C3OH2C3OH2C3OH2C3HOHC3HOHC3OH2C3OH2C3HOHC3HOHC3OH2C3OH2C3HOHC3HOHC3OH2C3OH2CNCNCNCNCNCNCNCNCNCNCNCNCNCNCNCNCNCNCNCNCNCNCNCNCNCNCNCNCNCNCNCNCNCNCNCNCNCNCNCNCNCNCNCNCNCNCNCNC3HOHC3HOHC3OH2C3OH2C3HOHC3HOHC3OH2C3OH2C3HOHC3HOHC3HOHC3HOHC3OH2C3OH2C3HOHC3HOHC3OH2C3OH2C3HOHC3HOHC3OH2C3OH2C3HOHC3HOH
_chemical_formula_sum              "C192 O48 H96 N48"
_cell_length_a       44.1651
_cell_length_b       34.6321
_cell_length_c       14.8896
_cell_angle_alpha    90
_cell_angle_beta     90
_cell_angle_gamma    90

_space_group_name_H-M_alt    "P 1"
_space_group_IT_number       1

loop_
  _space_group_symop_operation_xyz
  'x, y, z'

loop_
  _atom_site_type_symbol
  _atom_site_label
  _atom_site_symmetry_multiplicity
  _atom_site_fract_x
  _atom_site_fract_y
  _atom_site_fract_z
  _atom_site_occupancy
  C   C1        1.0  0.97757  0.98270  0.33609  1.0000
  C   C2        1.0  0.97662  0.02362  0.33615  1.0000
  C   C3        1.0  0.00334  0.04615  0.34718  1.0000
  O   O1        1.0  0.94892  0.04023  0.32543  1.0000
  H   H1        1.0  0.95759  0.96824  0.32713  1.0000
  H   H2        1.0  0.94629  0.04417  0.26046  1.0000
  C   C4        1.0  0.47758  0.48343  0.33306  1.0000
  C   C5        1.0  0.47688  0.52433  0.33354  1.0000
  C   C6        1.0  0.50377  0.54650  0.34462  1.0000
  O   O2        1.0  0.44924  0.54123  0.32404  1.0000
  H   H3        1.0  0.45747  0.46921  0.32455  1.0000
  H   H4        1.0  0.44649  0.54566  0.25929  1.0000
  C   C7        1.0  0.08492  0.23082  0.29571  1.0000
  C   C8        1.0  0.05872  0.20746  0.29512  1.0000
  C   C9        1.0  0.05866  0.17047  0.33648  1.0000
  H   H5        1.0  0.08371  0.25695  0.26369  1.0000
  O   O3        1.0  0.03428  0.22040  0.24776  1.0000
  H   H6        1.0  0.02678  0.24376  0.27807  1.0000
  C   C10       1.0  0.92522  0.77445  0.28895  1.0000
  C   C11       1.0  0.95148  0.79762  0.28993  1.0000
  C   C12       1.0  0.95086  0.83607  0.32372  1.0000
  H   H7        1.0  0.92719  0.74729  0.26238  1.0000
  O   O4        1.0  0.97677  0.78191  0.25226  1.0000
  H   H8        1.0  0.98520  0.76387  0.29681  1.0000
  C   C13       1.0  0.92097  0.15769  0.32777  1.0000
  C   C14       1.0  0.89464  0.18134  0.32593  1.0000
  C   C15       1.0  0.89568  0.22052  0.35413  1.0000
  O   O5        1.0  0.86844  0.16558  0.29488  1.0000
  H   H9        1.0  0.91926  0.12993  0.30471  1.0000
  H   H10       1.0  0.86769  0.17132  0.23023  1.0000
  C   C16       1.0  0.05960  0.80154  0.28043  1.0000
  C   C17       1.0  0.08469  0.77634  0.27867  1.0000
  C   C18       1.0  0.11241  0.78628  0.32156  1.0000
  O   O6        1.0  0.08166  0.74323  0.22984  1.0000
  H   H11       1.0  0.04044  0.79298  0.24725  1.0000
  H   H12       1.0  0.06893  0.72564  0.26548  1.0000
  C   C19       1.0  0.61352  0.68340  0.32415  1.0000
  C   C20       1.0  0.58785  0.65864  0.32204  1.0000
  C   C21       1.0  0.55988  0.66988  0.36154  1.0000
  H   H13       1.0  0.63285  0.67467  0.29211  1.0000
  O   O7        1.0  0.59055  0.62421  0.27881  1.0000
  H   H14       1.0  0.58396  0.62873  0.21659  1.0000
  C   C22       1.0  0.42210  0.27968  0.27306  1.0000
  C   C23       1.0  0.44843  0.30277  0.27303  1.0000
  C   C24       1.0  0.44943  0.33825  0.32085  1.0000
  H   H15       1.0  0.42265  0.25461  0.23662  1.0000
  O   O8        1.0  0.47211  0.29082  0.22121  1.0000
  H   H16       1.0  0.48109  0.26833  0.25156  1.0000
  C   C25       1.0  0.42230  0.65874  0.32949  1.0000
  C   C26       1.0  0.39603  0.68245  0.32759  1.0000
  C   C27       1.0  0.39659  0.72078  0.36170  1.0000
  O   O9        1.0  0.37042  0.66763  0.29032  1.0000
  H   H17       1.0  0.42097  0.63169  0.30206  1.0000
  H   H18       1.0  0.37091  0.67485  0.22645  1.0000
  C   C28       1.0  0.55760  0.29968  0.28562  1.0000
  C   C29       1.0  0.58264  0.27440  0.28476  1.0000
  C   C30       1.0  0.61101  0.28545  0.32231  1.0000
  O   O10       1.0  0.57865  0.23999  0.24178  1.0000
  H   H19       1.0  0.53800  0.29015  0.25645  1.0000
  H   H20       1.0  0.56681  0.22344  0.28247  1.0000
  C   C31       1.0  0.39595  0.10387  0.25872  1.0000
  C   C32       1.0  0.38908  0.14341  0.26420  1.0000
  C   C33       1.0  0.36430  0.15591  0.31693  1.0000
  O   O11       1.0  0.40605  0.16844  0.21466  1.0000
  H   H21       1.0  0.41417  0.09594  0.22038  1.0000
  H   H22       1.0  0.42505  0.17235  0.24799  1.0000
  C   C34       1.0  0.64988  0.92127  0.31514  1.0000
  C   C35       1.0  0.65868  0.88229  0.30739  1.0000
  C   C36       1.0  0.64432  0.85357  0.36041  1.0000
  O   O12       1.0  0.68007  0.87331  0.24490  1.0000
  H   H23       1.0  0.65905  0.94103  0.27175  1.0000
  H   H24       1.0  0.66905  0.86457  0.19121  1.0000
  C   C37       1.0  0.61956  0.14050  0.27281  1.0000
  C   C38       1.0  0.61052  0.10163  0.26855  1.0000
  C   C39       1.0  0.62528  0.07332  0.32208  1.0000
  H   H25       1.0  0.60854  0.16019  0.23321  1.0000
  O   O13       1.0  0.58809  0.09194  0.20956  1.0000
  H   H26       1.0  0.56944  0.10487  0.22970  1.0000
  C   C40       1.0  0.34859  0.88006  0.29768  1.0000
  C   C41       1.0  0.35612  0.91964  0.29695  1.0000
  C   C42       1.0  0.37793  0.93398  0.35802  1.0000
  H   H27       1.0  0.33338  0.87011  0.25119  1.0000
  O   O14       1.0  0.34330  0.94274  0.23344  1.0000
  H   H28       1.0  0.35657  0.94143  0.18047  1.0000
  C   C43       1.0  0.85669  0.58671  0.29157  1.0000
  C   C44       1.0  0.84901  0.62606  0.28265  1.0000
  C   C45       1.0  0.86392  0.65440  0.33548  1.0000
  O   O15       1.0  0.82809  0.63579  0.21935  1.0000
  H   H29       1.0  0.84721  0.56712  0.24837  1.0000
  H   H30       1.0  0.83952  0.64417  0.16612  1.0000
  C   C46       1.0  0.14940  0.42054  0.30838  1.0000
  C   C47       1.0  0.15781  0.38140  0.30047  1.0000
  C   C48       1.0  0.14328  0.35288  0.35366  1.0000
  O   O16       1.0  0.17917  0.37202  0.23818  1.0000
  H   H31       1.0  0.15877  0.44020  0.26514  1.0000
  H   H32       1.0  0.16811  0.36323  0.18462  1.0000
  C   C49       1.0  0.12048  0.64101  0.27041  1.0000
  C   C50       1.0  0.11140  0.60212  0.26619  1.0000
  C   C51       1.0  0.12634  0.57369  0.31895  1.0000
  H   H33       1.0  0.10929  0.66076  0.23138  1.0000
  O   O17       1.0  0.08873  0.59245  0.20796  1.0000
  H   H34       1.0  0.07025  0.60581  0.22790  1.0000
  C   C52       1.0  0.88699  0.36385  0.27469  1.0000
  C   C53       1.0  0.89568  0.40270  0.26568  1.0000
  C   C54       1.0  0.88014  0.43223  0.31355  1.0000
  H   H35       1.0  0.89867  0.34331  0.23928  1.0000
  O   O18       1.0  0.91879  0.41092  0.20786  1.0000
  H   H36       1.0  0.93756  0.40125  0.23554  1.0000
  C   C55       1.0  0.51913  0.03068  0.29598  1.0000
  C   C56       1.0  0.48748  0.03142  0.28938  1.0000
  C   C57       1.0  0.47004  0.00273  0.33331  1.0000
  O   O19       1.0  0.47505  0.06042  0.23973  1.0000
  H   H37       1.0  0.53105  0.05151  0.26244  1.0000
  H   H38       1.0  0.47079  0.04940  0.18017  1.0000
  C   C58       1.0  0.01928  0.53515  0.31081  1.0000
  C   C59       1.0  0.98760  0.53599  0.30507  1.0000
  C   C60       1.0  0.97056  0.50441  0.33796  1.0000
  O   O20       1.0  0.97461  0.56754  0.26620  1.0000
  H   H39       1.0  0.03092  0.55812  0.28489  1.0000
  H   H40       1.0  0.97019  0.56029  0.20369  1.0000
  C   C61       1.0  0.24176  0.29054  0.32604  1.0000
  C   C62       1.0  0.27353  0.28624  0.32674  1.0000
  C   C63       1.0  0.28678  0.25010  0.34715  1.0000
  H   H41       1.0  0.23355  0.31726  0.30975  1.0000
  O   O21       1.0  0.29062  0.31783  0.30686  1.0000
  H   H42       1.0  0.29324  0.31782  0.24126  1.0000
  C   C64       1.0  0.76622  0.71858  0.30849  1.0000
  C   C65       1.0  0.73453  0.72327  0.31355  1.0000
  C   C66       1.0  0.72190  0.75959  0.33560  1.0000
  H   H43       1.0  0.77399  0.69163  0.29232  1.0000
  O   O22       1.0  0.71687  0.69175  0.29800  1.0000
  H   H44       1.0  0.71216  0.69205  0.23344  1.0000
  C   C67       1.0  0.74144  0.21624  0.33088  1.0000
  C   C68       1.0  0.77313  0.22127  0.33331  1.0000
  C   C69       1.0  0.78571  0.25805  0.35106  1.0000
  O   O23       1.0  0.79081  0.18976  0.31779  1.0000
  H   H45       1.0  0.73375  0.18906  0.31662  1.0000
  H   H46       1.0  0.79437  0.18901  0.25260  1.0000
  C   C70       1.0  0.26636  0.78879  0.31888  1.0000
  C   C71       1.0  0.23464  0.78399  0.31985  1.0000
  C   C72       1.0  0.22173  0.74788  0.34246  1.0000
  O   O24       1.0  0.21723  0.81519  0.29907  1.0000
  H   H47       1.0  0.27433  0.81555  0.30181  1.0000
  H   H48       1.0  0.21441  0.81459  0.23356  1.0000
  C   C73       1.0  0.97675  0.14872  0.35180  1.0000
  N   N1        1.0  0.97733  0.10929  0.35106  1.0000
  C   C74       1.0  0.00352  0.08803  0.34749  1.0000
  N   N2        1.0  0.03012  0.10850  0.34370  1.0000
  C   C75       1.0  0.03129  0.14790  0.34196  1.0000
  N   N3        1.0  0.00418  0.16637  0.34651  1.0000
  C   C76       1.0  0.03272  0.85993  0.33137  1.0000
  N   N4        1.0  0.03154  0.89914  0.33858  1.0000
  C   C77       1.0  0.00503  0.91971  0.34145  1.0000
  N   N5        1.0  0.97871  0.89862  0.33666  1.0000
  C   C78       1.0  0.97805  0.85926  0.32919  1.0000
  N   N6        1.0  0.00554  0.84163  0.32714  1.0000
  C   C79       1.0  0.47766  0.64904  0.35863  1.0000
  N   N7        1.0  0.47804  0.60971  0.35200  1.0000
  C   C80       1.0  0.50412  0.58830  0.34801  1.0000
  N   N8        1.0  0.53084  0.60847  0.35055  1.0000
  C   C81       1.0  0.53229  0.64772  0.35687  1.0000
  N   N9        1.0  0.50524  0.66645  0.36055  1.0000
  C   C82       1.0  0.53151  0.35979  0.32906  1.0000
  N   N10       1.0  0.53079  0.39906  0.33586  1.0000
  C   C83       1.0  0.50457  0.42020  0.33850  1.0000
  N   N11       1.0  0.47801  0.39973  0.33404  1.0000
  C   C84       1.0  0.47693  0.36046  0.32662  1.0000
  N   N12       1.0  0.50408  0.34198  0.32468  1.0000
  C   C85       1.0  0.39123  0.97076  0.34648  1.0000
  N   N13       1.0  0.37627  0.00474  0.33197  1.0000
  C   C86       1.0  0.39207  0.03814  0.31748  1.0000
  N   N14       1.0  0.42270  0.03631  0.31896  1.0000
  C   C87       1.0  0.43818  0.00325  0.33128  1.0000
  N   N15       1.0  0.42188  0.97092  0.34495  1.0000
  C   C88       1.0  0.61243  0.03615  0.33341  1.0000
  N   N16       1.0  0.62809  0.00286  0.34975  1.0000
  C   C89       1.0  0.61303  0.96909  0.36601  1.0000
  N   N17       1.0  0.58236  0.96932  0.36335  1.0000
  C   C90       1.0  0.56618  0.00173  0.34892  1.0000
  N   N18       1.0  0.58183  0.03459  0.33480  1.0000
  C   C91       1.0  0.89270  0.46980  0.32092  1.0000
  N   N19       1.0  0.87705  0.50360  0.33229  1.0000
  C   C92       1.0  0.89221  0.53765  0.34510  1.0000
  N   N20       1.0  0.92284  0.53702  0.34439  1.0000
  C   C93       1.0  0.93884  0.50429  0.33472  1.0000
  N   N21       1.0  0.92330  0.47118  0.32449  1.0000
  C   C94       1.0  0.11335  0.53660  0.33092  1.0000
  N   N22       1.0  0.12878  0.50289  0.34482  1.0000
  C   C95       1.0  0.11350  0.46928  0.36145  1.0000
  N   N23       1.0  0.08283  0.47029  0.36154  1.0000
  C   C96       1.0  0.06678  0.50300  0.34982  1.0000
  N   N24       1.0  0.08275  0.53558  0.33516  1.0000
  C   C97       1.0  0.13682  0.24675  0.34353  1.0000
  N   N25       1.0  0.16711  0.23773  0.34330  1.0000
  C   C98       1.0  0.18934  0.26559  0.34437  1.0000
  N   N26       1.0  0.17999  0.30282  0.34664  1.0000
  C   C99       1.0  0.15071  0.31338  0.34767  1.0000
  N   N27       1.0  0.12959  0.28501  0.34685  1.0000
  C   C100      1.0  0.87189  0.76044  0.32567  1.0000
  N   N28       1.0  0.84170  0.77000  0.32407  1.0000
  C   C101      1.0  0.81910  0.74262  0.32378  1.0000
  N   N29       1.0  0.82794  0.70521  0.32631  1.0000
  C   C102      1.0  0.85707  0.69405  0.32864  1.0000
  N   N30       1.0  0.87852  0.72200  0.32924  1.0000
  C   C103      1.0  0.87057  0.24719  0.34951  1.0000
  N   N31       1.0  0.84040  0.23763  0.35209  1.0000
  C   C104      1.0  0.81779  0.26496  0.35000  1.0000
  N   N32       1.0  0.82660  0.30234  0.34401  1.0000
  C   C105      1.0  0.85572  0.31357  0.34049  1.0000
  N   N33       1.0  0.87712  0.28554  0.34270  1.0000
  C   C106      1.0  0.13710  0.75913  0.32723  1.0000
  N   N34       1.0  0.16720  0.76856  0.33457  1.0000
  C   C107      1.0  0.18963  0.74109  0.34008  1.0000
  N   N35       1.0  0.18067  0.70368  0.33820  1.0000
  C   C108      1.0  0.15155  0.69255  0.33223  1.0000
  N   N36       1.0  0.13037  0.72076  0.32634  1.0000
  C   C109      1.0  0.63736  0.74748  0.35748  1.0000
  N   N37       1.0  0.66746  0.73820  0.34760  1.0000
  C   C110      1.0  0.68978  0.76586  0.34186  1.0000
  N   N38       1.0  0.68070  0.80319  0.34470  1.0000
  C   C111      1.0  0.65164  0.81406  0.35311  1.0000
  N   N39       1.0  0.63061  0.78580  0.35996  1.0000
  C   C112      1.0  0.37114  0.26239  0.32748  1.0000
  N   N40       1.0  0.34109  0.27143  0.33799  1.0000
  C   C113      1.0  0.31887  0.24368  0.34216  1.0000
  N   N41       1.0  0.32798  0.20646  0.33504  1.0000
  C   C114      1.0  0.35707  0.19563  0.32487  1.0000
  N   N42       1.0  0.37806  0.22415  0.32110  1.0000
  C   C115      1.0  0.37161  0.74761  0.35595  1.0000
  N   N43       1.0  0.34154  0.73799  0.34826  1.0000
  C   C116      1.0  0.31898  0.76525  0.34236  1.0000
  N   N44       1.0  0.32775  0.80271  0.34444  1.0000
  C   C117      1.0  0.35678  0.81401  0.35176  1.0000
  N   N45       1.0  0.37814  0.78608  0.35781  1.0000
  C   C118      1.0  0.63591  0.25855  0.32851  1.0000
  N   N46       1.0  0.66605  0.26801  0.33546  1.0000
  C   C119      1.0  0.68850  0.24053  0.34088  1.0000
  N   N47       1.0  0.67951  0.20314  0.34059  1.0000
  C   C120      1.0  0.65041  0.19202  0.33511  1.0000
  N   N48       1.0  0.62927  0.22018  0.32861  1.0000
  C   C121      1.0  0.03064  0.02501  0.35737  1.0000
  C   C122      1.0  0.03159  0.98412  0.35747  1.0000
  C   C123      1.0  0.00491  0.96156  0.34564  1.0000
  H   H49       1.0  0.05065  0.03946  0.36591  1.0000
  O   O25       1.0  0.05937  0.96767  0.36776  1.0000
  H   H50       1.0  0.06206  0.96366  0.43268  1.0000
  C   C124      1.0  0.53098  0.52507  0.35379  1.0000
  C   C125      1.0  0.53168  0.48419  0.35342  1.0000
  C   C126      1.0  0.50480  0.46201  0.34222  1.0000
  H   H51       1.0  0.55110  0.53926  0.36229  1.0000
  O   O26       1.0  0.55935  0.46737  0.36298  1.0000
  H   H52       1.0  0.56233  0.46369  0.42789  1.0000
  C   C127      1.0  0.08634  0.15807  0.37534  1.0000
  C   C128      1.0  0.11250  0.18202  0.37732  1.0000
  C   C129      1.0  0.11217  0.21952  0.33861  1.0000
  O   O27       1.0  0.13767  0.16854  0.41961  1.0000
  H   H53       1.0  0.08728  0.13178  0.40664  1.0000
  H   H54       1.0  0.13653  0.17793  0.48186  1.0000
  C   C130      1.0  0.92230  0.84966  0.35410  1.0000
  C   C131      1.0  0.89600  0.82593  0.35460  1.0000
  C   C132      1.0  0.89696  0.78722  0.32296  1.0000
  O   O28       1.0  0.86989  0.84108  0.38792  1.0000
  H   H55       1.0  0.92061  0.87704  0.37952  1.0000
  H   H56       1.0  0.86932  0.83408  0.45191  1.0000
  C   C133      1.0  0.92401  0.23387  0.38644  1.0000
  C   C134      1.0  0.95033  0.21075  0.38679  1.0000
  C   C135      1.0  0.94958  0.17186  0.35615  1.0000
  H   H57       1.0  0.92599  0.26138  0.41094  1.0000
  O   O29       1.0  0.97579  0.22642  0.42378  1.0000
  H   H58       1.0  0.98260  0.24714  0.38335  1.0000
  C   C136      1.0  0.11362  0.82305  0.36331  1.0000
  C   C137      1.0  0.08809  0.84802  0.36643  1.0000
  C   C138      1.0  0.06012  0.83740  0.32607  1.0000
  H   H59       1.0  0.13296  0.83130  0.39598  1.0000
  O   O30       1.0  0.09094  0.88196  0.41162  1.0000
  H   H60       1.0  0.08393  0.87698  0.47324  1.0000
  C   C139      1.0  0.55955  0.70609  0.40564  1.0000
  C   C140      1.0  0.58480  0.73101  0.40663  1.0000
  C   C141      1.0  0.61252  0.72052  0.36425  1.0000
  O   O31       1.0  0.58177  0.76445  0.45421  1.0000
  H   H61       1.0  0.54041  0.71513  0.43821  1.0000
  H   H62       1.0  0.56931  0.78196  0.41747  1.0000
  C   C142      1.0  0.42255  0.34951  0.36599  1.0000
  C   C143      1.0  0.39635  0.32568  0.36779  1.0000
  C   C144      1.0  0.39573  0.28965  0.32215  1.0000
  O   O32       1.0  0.37219  0.33769  0.41712  1.0000
  H   H63       1.0  0.42235  0.37461  0.40228  1.0000
  H   H64       1.0  0.37473  0.32640  0.47727  1.0000
  C   C145      1.0  0.42441  0.73321  0.39945  1.0000
  C   C146      1.0  0.45073  0.71012  0.39947  1.0000
  C   C147      1.0  0.45047  0.67212  0.36328  1.0000
  H   H65       1.0  0.42607  0.76011  0.42753  1.0000
  O   O33       1.0  0.47571  0.72527  0.44012  1.0000
  H   H66       1.0  0.48443  0.74404  0.39775  1.0000
  C   C148      1.0  0.61278  0.32337  0.35783  1.0000
  C   C149      1.0  0.58733  0.34849  0.35999  1.0000
  C   C150      1.0  0.55877  0.33687  0.32494  1.0000
  H   H67       1.0  0.63260  0.33257  0.38633  1.0000
  O   O34       1.0  0.59098  0.38379  0.39855  1.0000
  H   H68       1.0  0.58514  0.38083  0.46191  1.0000
  C   C151      1.0  0.34666  0.12764  0.36178  1.0000
  C   C152      1.0  0.35441  0.08814  0.35936  1.0000
  C   C153      1.0  0.37971  0.07578  0.30858  1.0000
  H   H69       1.0  0.32880  0.13584  0.40128  1.0000
  O   O35       1.0  0.33793  0.06308  0.41010  1.0000
  H   H70       1.0  0.34754  0.06253  0.46968  1.0000
  C   C154      1.0  0.62252  0.86506  0.42413  1.0000
  C   C155      1.0  0.61351  0.90390  0.43152  1.0000
  C   C156      1.0  0.62673  0.93240  0.37521  1.0000
  H   H71       1.0  0.61272  0.84509  0.46578  1.0000
  O   O36       1.0  0.59288  0.91391  0.49589  1.0000
  H   H72       1.0  0.57494  0.89734  0.48884  1.0000
  C   C157      1.0  0.64999  0.08481  0.37599  1.0000
  C   C158      1.0  0.65881  0.12389  0.38083  1.0000
  C   C159      1.0  0.64304  0.15238  0.33066  1.0000
  O   O37       1.0  0.68181  0.13313  0.43784  1.0000
  H   H73       1.0  0.66044  0.06524  0.41722  1.0000
  H   H74       1.0  0.67226  0.14200  0.49384  1.0000
  C   C160      1.0  0.39132  0.90798  0.41984  1.0000
  C   C161      1.0  0.38487  0.86825  0.41789  1.0000
  C   C162      1.0  0.36351  0.85381  0.35568  1.0000
  O   O38       1.0  0.39860  0.84486  0.47921  1.0000
  H   H75       1.0  0.40736  0.91754  0.46436  1.0000
  H   H76       1.0  0.41934  0.84049  0.45735  1.0000
  C   C163      1.0  0.88538  0.64240  0.39963  1.0000
  C   C164      1.0  0.89315  0.60322  0.40836  1.0000
  C   C165      1.0  0.87927  0.57489  0.35276  1.0000
  H   H77       1.0  0.89572  0.66216  0.44066  1.0000
  O   O39       1.0  0.91375  0.59332  0.47275  1.0000
  H   H78       1.0  0.93356  0.60319  0.45302  1.0000
  C   C166      1.0  0.12166  0.36463  0.41755  1.0000
  C   C167      1.0  0.11320  0.40368  0.42559  1.0000
  C   C168      1.0  0.12659  0.43207  0.36920  1.0000
  H   H79       1.0  0.11188  0.34474  0.45945  1.0000
  O   O40       1.0  0.09322  0.41418  0.49142  1.0000
  H   H80       1.0  0.07556  0.39690  0.48880  1.0000
  C   C169      1.0  0.15124  0.58513  0.37212  1.0000
  C   C170      1.0  0.16010  0.62421  0.37694  1.0000
  C   C171      1.0  0.14419  0.65285  0.32750  1.0000
  O   O41       1.0  0.18327  0.63332  0.43344  1.0000
  H   H81       1.0  0.16179  0.56550  0.41297  1.0000
  H   H82       1.0  0.17390  0.64211  0.48977  1.0000
  C   C172      1.0  0.85502  0.42172  0.36691  1.0000
  C   C173      1.0  0.84644  0.38268  0.37628  1.0000
  C   C174      1.0  0.86290  0.35315  0.33154  1.0000
  O   O42       1.0  0.82296  0.37457  0.43253  1.0000
  H   H83       1.0  0.84400  0.44215  0.40438  1.0000
  H   H84       1.0  0.83203  0.36712  0.49033  1.0000
  C   C175      1.0  0.48512  0.97334  0.38165  1.0000
  C   C176      1.0  0.51680  0.97273  0.38844  1.0000
  C   C177      1.0  0.53427  0.00152  0.34500  1.0000
  H   H85       1.0  0.47312  0.95254  0.41523  1.0000
  O   O43       1.0  0.52924  0.94412  0.43895  1.0000
  H   H86       1.0  0.53180  0.95489  0.49962  1.0000
  C   C178      1.0  0.98578  0.47250  0.37579  1.0000
  C   C179      1.0  0.01745  0.47194  0.38236  1.0000
  C   C180      1.0  0.03477  0.50323  0.34849  1.0000
  H   H87       1.0  0.97387  0.44965  0.40158  1.0000
  O   O44       1.0  0.03001  0.44050  0.42240  1.0000
  H   H88       1.0  0.03105  0.44659  0.48686  1.0000
  C   C181      1.0  0.26657  0.21914  0.36652  1.0000
  C   C182      1.0  0.23478  0.22344  0.36569  1.0000
  C   C183      1.0  0.22153  0.25949  0.34443  1.0000
  O   O45       1.0  0.21763  0.19181  0.38475  1.0000
  H   H89       1.0  0.27485  0.19237  0.38213  1.0000
  H   H90       1.0  0.21403  0.19239  0.44992  1.0000
  C   C184      1.0  0.74267  0.79044  0.35047  1.0000
  C   C185      1.0  0.77436  0.78572  0.34582  1.0000
  C   C186      1.0  0.78699  0.74932  0.32451  1.0000
  O   O46       1.0  0.79201  0.81713  0.36274  1.0000
  H   H91       1.0  0.73496  0.81734  0.36733  1.0000
  H   H92       1.0  0.79586  0.81710  0.42781  1.0000
  C   C187      1.0  0.76492  0.28886  0.36585  1.0000
  C   C188      1.0  0.73322  0.28384  0.36312  1.0000
  C   C189      1.0  0.72062  0.24713  0.34466  1.0000
  H   H93       1.0  0.77267  0.31607  0.37951  1.0000
  O   O47       1.0  0.71553  0.31544  0.37739  1.0000
  H   H94       1.0  0.71127  0.31602  0.44221  1.0000
  C   C190      1.0  0.24226  0.71738  0.36271  1.0000
  C   C191      1.0  0.27400  0.72219  0.36177  1.0000
  C   C192      1.0  0.28690  0.75832  0.33932  1.0000
  H   H95       1.0  0.23428  0.69063  0.37977  1.0000
  O   O48       1.0  0.29143  0.69102  0.38256  1.0000
  H   H96       1.0  0.29423  0.69161  0.44808  1.0000
