data_image0
_chemical_formula_structural       C2OHCHC8OHC6O2H2C6O2H2CNCHNHCNCHNHCNCHNHCNCHNHCNCHNHCNCHNHC3H3C3H2C3H2C3H2C3H2C4HC5HO2C4HC6HO2C3HC6HO2C4HC6HO2C4HC6HO2C4HC6HO2
_chemical_formula_sum              "C108 O18 H42 N12"
_cell_length_a       31.6661
_cell_length_b       31.6661
_cell_length_c       14.8722
_cell_angle_alpha    90
_cell_angle_beta     90
_cell_angle_gamma    120

_space_group_name_H-M_alt    "P 1"
_space_group_IT_number       1

loop_
  _space_group_symop_operation_xyz
  'x, y, z'

loop_
  _atom_site_type_symbol
  _atom_site_label
  _atom_site_symmetry_multiplicity
  _atom_site_fract_x
  _atom_site_fract_y
  _atom_site_fract_z
  _atom_site_occupancy
  C   C1        1.0  0.03336  0.51828  0.33766  1.0000
  C   C2        1.0  0.06157  0.57010  0.32250  1.0000
  O   O1        1.0  0.04158  0.59737  0.29566  1.0000
  H   H1        1.0  0.03375  0.59017  0.23149  1.0000
  C   C3        1.0  0.06119  0.49489  0.35544  1.0000
  H   H2        1.0  0.04454  0.45898  0.37236  1.0000
  C   C4        1.0  0.11312  0.59639  0.33152  1.0000
  C   C5        1.0  0.11263  0.51953  0.35224  1.0000
  C   C6        1.0  0.13800  0.57044  0.34318  1.0000
  C   C7        1.0  0.14083  0.49601  0.35549  1.0000
  C   C8        1.0  0.14215  0.64816  0.33627  1.0000
  C   C9        1.0  0.97963  0.49035  0.33770  1.0000
  C   C10       1.0  0.89988  0.41221  0.33165  1.0000
  C   C11       1.0  0.95143  0.43853  0.32252  1.0000
  O   O2        1.0  0.97143  0.41128  0.29559  1.0000
  H   H3        1.0  0.97923  0.41849  0.23141  1.0000
  C   C12       1.0  0.52041  0.49138  0.33765  1.0000
  C   C13       1.0  0.59853  0.48976  0.33162  1.0000
  C   C14       1.0  0.57222  0.51499  0.32242  1.0000
  C   C15       1.0  0.49249  0.51719  0.33771  1.0000
  C   C16       1.0  0.44066  0.49359  0.32257  1.0000
  C   C17       1.0  0.41437  0.51883  0.33175  1.0000
  O   O3        1.0  0.59948  0.56224  0.29553  1.0000
  O   O4        1.0  0.41339  0.44633  0.29568  1.0000
  H   H4        1.0  0.59226  0.56285  0.23137  1.0000
  H   H5        1.0  0.42058  0.44572  0.23151  1.0000
  C   C18       1.0  0.51935  0.03118  0.33771  1.0000
  C   C19       1.0  0.52097  0.11094  0.33182  1.0000
  C   C20       1.0  0.49573  0.05940  0.32266  1.0000
  C   C21       1.0  0.49355  0.97746  0.33765  1.0000
  C   C22       1.0  0.51715  0.94925  0.32237  1.0000
  C   C23       1.0  0.49191  0.89769  0.33137  1.0000
  O   O5        1.0  0.44846  0.03941  0.29586  1.0000
  O   O6        1.0  0.56439  0.96924  0.29538  1.0000
  H   H6        1.0  0.44782  0.03161  0.23168  1.0000
  H   H7        1.0  0.56497  0.97707  0.23122  1.0000
  C   C24       1.0  0.33496  0.49191  0.25900  1.0000
  N   N1        1.0  0.28985  0.48665  0.26748  1.0000
  C   C25       1.0  0.16062  0.49025  0.27432  1.0000
  H   H8        1.0  0.35002  0.49723  0.19627  1.0000
  N   N2        1.0  0.20080  0.48537  0.27538  1.0000
  H   H9        1.0  0.14799  0.49433  0.21348  1.0000
  C   C26       1.0  0.51876  0.84507  0.25862  1.0000
  N   N3        1.0  0.52411  0.80528  0.26716  1.0000
  C   C27       1.0  0.52063  0.67251  0.27433  1.0000
  H   H10       1.0  0.51371  0.85495  0.19582  1.0000
  N   N4        1.0  0.52548  0.71755  0.27529  1.0000
  H   H11       1.0  0.51657  0.65582  0.21347  1.0000
  C   C28       1.0  0.16561  0.67583  0.25897  1.0000
  N   N5        1.0  0.20546  0.72094  0.26745  1.0000
  C   C29       1.0  0.33826  0.85019  0.27435  1.0000
  H   H12       1.0  0.15589  0.66080  0.19622  1.0000
  N   N6        1.0  0.29322  0.81001  0.27539  1.0000
  H   H13       1.0  0.35498  0.86284  0.21351  1.0000
  C   C30       1.0  0.67801  0.51666  0.25885  1.0000
  N   N7        1.0  0.72315  0.52202  0.26728  1.0000
  C   C31       1.0  0.85241  0.51848  0.27410  1.0000
  H   H14       1.0  0.66307  0.51164  0.19606  1.0000
  N   N8        1.0  0.81225  0.52338  0.27518  1.0000
  H   H15       1.0  0.86511  0.51454  0.21322  1.0000
  C   C32       1.0  0.49404  0.16341  0.25916  1.0000
  N   N9        1.0  0.48877  0.20327  0.26758  1.0000
  C   C33       1.0  0.49236  0.33609  0.27425  1.0000
  H   H16       1.0  0.49934  0.15366  0.19642  1.0000
  N   N10       1.0  0.48748  0.29104  0.27538  1.0000
  H   H17       1.0  0.49644  0.35280  0.21341  1.0000
  C   C34       1.0  0.84733  0.33274  0.25880  1.0000
  N   N11       1.0  0.80753  0.28760  0.26726  1.0000
  C   C35       1.0  0.67471  0.15837  0.27410  1.0000
  H   H18       1.0  0.85726  0.34768  0.19601  1.0000
  N   N12       1.0  0.71978  0.19852  0.27518  1.0000
  H   H19       1.0  0.65808  0.14567  0.21322  1.0000
  C   C36       1.0  0.95179  0.51373  0.35547  1.0000
  C   C37       1.0  0.90034  0.48906  0.35232  1.0000
  C   C38       1.0  0.87499  0.43816  0.34319  1.0000
  H   H20       1.0  0.96843  0.54964  0.37227  1.0000
  H   H21       1.0  0.83752  0.41954  0.34569  1.0000
  H   H22       1.0  0.17547  0.58905  0.34577  1.0000
  C   C39       1.0  0.49702  0.44016  0.35544  1.0000
  C   C40       1.0  0.52167  0.41337  0.35225  1.0000
  C   C41       1.0  0.57258  0.43892  0.34318  1.0000
  H   H23       1.0  0.46111  0.42090  0.37234  1.0000
  H   H24       1.0  0.59120  0.42007  0.34575  1.0000
  C   C42       1.0  0.44033  0.56967  0.34334  1.0000
  C   C43       1.0  0.49124  0.59521  0.35236  1.0000
  C   C44       1.0  0.51589  0.56842  0.35549  1.0000
  H   H25       1.0  0.42172  0.58853  0.34594  1.0000
  H   H26       1.0  0.55180  0.58767  0.37231  1.0000
  C   C45       1.0  0.57059  0.05902  0.35542  1.0000
  C   C46       1.0  0.59737  0.11046  0.35233  1.0000
  C   C47       1.0  0.57182  0.13582  0.34333  1.0000
  H   H27       1.0  0.58986  0.04236  0.37214  1.0000
  H   H28       1.0  0.59067  0.17329  0.34592  1.0000
  C   C48       1.0  0.44108  0.87281  0.34306  1.0000
  C   C49       1.0  0.41554  0.89817  0.35226  1.0000
  C   C50       1.0  0.44233  0.94962  0.35552  1.0000
  H   H29       1.0  0.42222  0.83535  0.34558  1.0000
  H   H30       1.0  0.42309  0.96627  0.37250  1.0000
  C   C51       1.0  0.36259  0.49610  0.33635  1.0000
  C   C52       1.0  0.26821  0.48424  0.34798  1.0000
  C   C53       1.0  0.29372  0.48710  0.42847  1.0000
  C   C54       1.0  0.34074  0.49249  0.42112  1.0000
  H   H31       1.0  0.36127  0.49846  0.47799  1.0000
  C   C55       1.0  0.22351  0.48414  0.35209  1.0000
  C   C56       1.0  0.16299  0.49407  0.43663  1.0000
  C   C57       1.0  0.20431  0.48783  0.43637  1.0000
  C   C58       1.0  0.22911  0.48898  0.51624  1.0000
  C   C59       1.0  0.27326  0.48833  0.51237  1.0000
  H   H32       1.0  0.15130  0.50137  0.49577  1.0000
  O   O7        1.0  0.21220  0.49295  0.59768  1.0000
  O   O8        1.0  0.29697  0.49187  0.59034  1.0000
  C   C60       1.0  0.51466  0.86867  0.33580  1.0000
  C   C61       1.0  0.52648  0.78609  0.34770  1.0000
  C   C62       1.0  0.52351  0.80871  0.42812  1.0000
  C   C63       1.0  0.51807  0.85030  0.42061  1.0000
  H   H33       1.0  0.51218  0.86491  0.47750  1.0000
  C   C64       1.0  0.52660  0.74148  0.35193  1.0000
  C   C65       1.0  0.51476  0.64692  0.35548  1.0000
  C   C66       1.0  0.51665  0.67105  0.43657  1.0000
  C   C67       1.0  0.52283  0.71859  0.43623  1.0000
  C   C68       1.0  0.52159  0.74224  0.51604  1.0000
  C   C69       1.0  0.52220  0.78702  0.51207  1.0000
  H   H34       1.0  0.50923  0.65207  0.49574  1.0000
  O   O9        1.0  0.51756  0.72137  0.59751  1.0000
  O   O10       1.0  0.51857  0.80718  0.58997  1.0000
  C   C70       1.0  0.22467  0.74257  0.34795  1.0000
  C   C71       1.0  0.20203  0.71705  0.42842  1.0000
  C   C72       1.0  0.16041  0.67003  0.42103  1.0000
  H   H35       1.0  0.14585  0.64949  0.47789  1.0000
  C   C73       1.0  0.26928  0.78728  0.35208  1.0000
  C   C74       1.0  0.36381  0.86997  0.35552  1.0000
  C   C75       1.0  0.33972  0.84780  0.43666  1.0000
  C   C76       1.0  0.29216  0.80648  0.43637  1.0000
  C   C77       1.0  0.26850  0.78166  0.51623  1.0000
  C   C78       1.0  0.22371  0.73750  0.51234  1.0000
  H   H36       1.0  0.35871  0.85948  0.49580  1.0000
  O   O11       1.0  0.28938  0.79856  0.59768  1.0000
  O   O12       1.0  0.20353  0.71378  0.59029  1.0000
  C   C79       1.0  0.65030  0.51251  0.33606  1.0000
  C   C80       1.0  0.74476  0.52436  0.34776  1.0000
  C   C81       1.0  0.71918  0.52134  0.42824  1.0000
  C   C82       1.0  0.67214  0.51589  0.42081  1.0000
  H   H37       1.0  0.65165  0.50996  0.47773  1.0000
  C   C83       1.0  0.78947  0.52447  0.35189  1.0000
  C   C84       1.0  0.87211  0.51256  0.35519  1.0000
  C   C85       1.0  0.84996  0.51445  0.43641  1.0000
  C   C86       1.0  0.80861  0.52064  0.43615  1.0000
  C   C87       1.0  0.78374  0.51937  0.51602  1.0000
  C   C88       1.0  0.73958  0.51999  0.51214  1.0000
  H   H38       1.0  0.86155  0.50701  0.49553  1.0000
  O   O13       1.0  0.80059  0.51530  0.59744  1.0000
  O   O14       1.0  0.71580  0.51632  0.59008  1.0000
  C   C89       1.0  0.49824  0.13997  0.33650  1.0000
  C   C90       1.0  0.48636  0.22251  0.34805  1.0000
  C   C91       1.0  0.48924  0.19989  0.42855  1.0000
  C   C92       1.0  0.49464  0.15826  0.42122  1.0000
  H   H39       1.0  0.50062  0.14373  0.47812  1.0000
  C   C93       1.0  0.48627  0.26712  0.35211  1.0000
  C   C94       1.0  0.49816  0.36164  0.35541  1.0000
  C   C95       1.0  0.49621  0.33760  0.43662  1.0000
  C   C96       1.0  0.48997  0.29004  0.43639  1.0000
  C   C97       1.0  0.49112  0.26640  0.51628  1.0000
  C   C98       1.0  0.49048  0.22160  0.51244  1.0000
  H   H40       1.0  0.50352  0.35660  0.49575  1.0000
  O   O15       1.0  0.49510  0.28729  0.59770  1.0000
  O   O16       1.0  0.49402  0.20144  0.59043  1.0000
  C   C99       1.0  0.87086  0.36043  0.33602  1.0000
  C   C100      1.0  0.78826  0.26602  0.34776  1.0000
  C   C101      1.0  0.81082  0.29161  0.42823  1.0000
  C   C102      1.0  0.85242  0.33864  0.42081  1.0000
  H   H41       1.0  0.86698  0.35913  0.47771  1.0000
  C   C103      1.0  0.74365  0.22131  0.35189  1.0000
  C   C104      1.0  0.64909  0.13868  0.35519  1.0000
  C   C105      1.0  0.67313  0.16084  0.43640  1.0000
  C   C106      1.0  0.72067  0.20219  0.43614  1.0000
  C   C107      1.0  0.74427  0.22706  0.51601  1.0000
  C   C108      1.0  0.78906  0.27122  0.51213  1.0000
  H   H42       1.0  0.65411  0.14926  0.49553  1.0000
  O   O17       1.0  0.72334  0.21021  0.59743  1.0000
  O   O18       1.0  0.80916  0.29500  0.59007  1.0000
