data_image0
_chemical_formula_structural       C3NC3NC5NC4NC35H25C4H2C4HNH2C4H2C4HNH2C18H17C4H3NH2C4H3NH2
_chemical_formula_sum              "C92 N8 H62"
_cell_length_a       34.2514
_cell_length_b       34.2512
_cell_length_c       14.8525
_cell_angle_alpha    90
_cell_angle_beta     90
_cell_angle_gamma    90.0626

_space_group_name_H-M_alt    "P 1"
_space_group_IT_number       1

loop_
  _space_group_symop_operation_xyz
  'x, y, z'

loop_
  _atom_site_type_symbol
  _atom_site_label
  _atom_site_symmetry_multiplicity
  _atom_site_fract_x
  _atom_site_fract_y
  _atom_site_fract_z
  _atom_site_occupancy
  C   C1        1.0  0.10851  0.07768  0.34458  1.0000
  C   C2        1.0  0.08003  0.10618  0.34429  1.0000
  C   C3        1.0  0.04356  0.08786  0.34245  1.0000
  N   N1        1.0  0.05137  0.04902  0.34105  1.0000
  C   C4        1.0  0.09021  0.04119  0.34217  1.0000
  C   C5        1.0  0.10998  0.00460  0.34194  1.0000
  C   C6        1.0  0.09104  0.96763  0.34191  1.0000
  N   N2        1.0  0.05227  0.96006  0.34200  1.0000
  C   C7        1.0  0.04461  0.92129  0.34212  1.0000
  C   C8        1.0  0.08093  0.90279  0.34252  1.0000
  C   C9        1.0  0.10947  0.93126  0.34156  1.0000
  C   C10       1.0  0.00760  0.90244  0.34211  1.0000
  C   C11       1.0  0.97106  0.92229  0.34182  1.0000
  N   N3        1.0  0.96331  0.96114  0.34308  1.0000
  C   C12       1.0  0.92449  0.96902  0.34169  1.0000
  C   C13       1.0  0.90610  0.93259  0.33965  1.0000
  C   C14       1.0  0.93454  0.90407  0.33920  1.0000
  C   C15       1.0  0.90476  0.00561  0.34223  1.0000
  N   N4        1.0  0.96238  0.05012  0.34218  1.0000
  C   C16       1.0  0.97000  0.08887  0.34199  1.0000
  C   C17       1.0  0.93368  0.10741  0.34231  1.0000
  C   C18       1.0  0.90514  0.07892  0.34243  1.0000
  C   C19       1.0  0.00701  0.10766  0.34215  1.0000
  C   C20       1.0  0.00735  0.14937  0.34245  1.0000
  C   C21       1.0  0.00410  0.17049  0.26118  1.0000
  C   C22       1.0  0.00393  0.21161  0.26166  1.0000
  C   C23       1.0  0.00701  0.23304  0.34307  1.0000
  C   C24       1.0  0.00668  0.27497  0.34338  1.0000
  C   C25       1.0  0.98118  0.33749  0.28620  1.0000
  C   C26       1.0  0.98131  0.29637  0.28644  1.0000
  C   C27       1.0  0.86305  0.00529  0.34210  1.0000
  C   C28       1.0  0.84206  0.00179  0.26070  1.0000
  C   C29       1.0  0.80094  0.00142  0.26087  1.0000
  C   C30       1.0  0.77939  0.00461  0.34208  1.0000
  C   C31       1.0  0.73746  0.00432  0.34207  1.0000
  C   C32       1.0  0.71606  0.97885  0.28531  1.0000
  C   C33       1.0  0.67493  0.97877  0.28477  1.0000
  C   C34       1.0  0.65338  0.00398  0.34155  1.0000
  C   C35       1.0  0.00717  0.86068  0.34204  1.0000
  C   C36       1.0  0.00658  0.77713  0.34227  1.0000
  C   C37       1.0  0.01573  0.79840  0.26322  1.0000
  C   C38       1.0  0.01574  0.83951  0.26283  1.0000
  C   C39       1.0  0.00661  0.73535  0.34262  1.0000
  C   C40       1.0  0.03779  0.71402  0.30408  1.0000
  C   C41       1.0  0.03811  0.67291  0.30539  1.0000
  C   C42       1.0  0.00706  0.65143  0.34431  1.0000
  C   C43       1.0  0.15175  0.00489  0.34207  1.0000
  C   C44       1.0  0.17279  0.01348  0.26267  1.0000
  C   C45       1.0  0.21391  0.01367  0.26276  1.0000
  C   C46       1.0  0.23531  0.00474  0.34173  1.0000
  C   C47       1.0  0.27710  0.00475  0.34165  1.0000
  C   C48       1.0  0.36102  0.00511  0.34243  1.0000
  C   C49       1.0  0.33957  0.03605  0.30318  1.0000
  C   C50       1.0  0.29845  0.03576  0.30227  1.0000
  H   H1        1.0  0.35375  0.05901  0.27349  1.0000
  H   H2        1.0  0.28420  0.05896  0.27393  1.0000
  H   H3        1.0  0.22812  0.01963  0.20372  1.0000
  H   H4        1.0  0.15827  0.01965  0.20412  1.0000
  H   H5        1.0  0.13781  0.08327  0.34675  1.0000
  H   H6        1.0  0.08559  0.13550  0.34592  1.0000
  H   H7        1.0  0.03154  0.02922  0.33865  1.0000
  H   H8        1.0  0.98316  0.98094  0.34575  1.0000
  H   H9        1.0  0.13879  0.92579  0.34111  1.0000
  H   H10       1.0  0.08634  0.87345  0.34304  1.0000
  H   H11       1.0  0.02221  0.85394  0.20431  1.0000
  H   H12       1.0  0.02180  0.78408  0.20438  1.0000
  H   H13       1.0  0.92888  0.87478  0.33693  1.0000
  H   H14       1.0  0.87677  0.92708  0.33800  1.0000
  H   H15       1.0  0.87579  0.08431  0.34239  1.0000
  H   H16       1.0  0.85660  0.99963  0.20067  1.0000
  H   H17       1.0  0.78684  0.99956  0.20028  1.0000
  H   H18       1.0  0.66079  0.95947  0.24343  1.0000
  H   H19       1.0  0.73026  0.95944  0.24448  1.0000
  H   H20       1.0  0.96199  0.28216  0.24533  1.0000
  H   H21       1.0  0.96195  0.35161  0.24470  1.0000
  H   H22       1.0  0.00214  0.22579  0.20117  1.0000
  H   H23       1.0  0.00186  0.15605  0.20104  1.0000
  H   H24       1.0  0.06106  0.72830  0.27597  1.0000
  H   H25       1.0  0.06117  0.65875  0.27622  1.0000
  C   C51       1.0  0.00746  0.60962  0.34538  1.0000
  C   C52       1.0  0.00901  0.52605  0.34392  1.0000
  C   C53       1.0  0.97496  0.54675  0.31917  1.0000
  C   C54       1.0  0.97420  0.58779  0.32001  1.0000
  H   H26       1.0  0.95035  0.53203  0.29945  1.0000
  H   H27       1.0  0.94925  0.60163  0.29966  1.0000
  C   C55       1.0  0.00802  0.48442  0.34031  1.0000
  C   C56       1.0  0.00641  0.40086  0.34249  1.0000
  C   C57       1.0  0.00781  0.42189  0.26050  1.0000
  C   C58       1.0  0.00895  0.46328  0.25767  1.0000
  H   H28       1.0  0.00920  0.40666  0.20123  1.0000
  N   N5        1.0  0.01163  0.48117  0.17602  1.0000
  H   H29       1.0  0.01360  0.50935  0.17033  1.0000
  H   H30       1.0  0.01258  0.46616  0.12038  1.0000
  C   C59       1.0  0.40284  0.00550  0.34321  1.0000
  C   C60       1.0  0.48641  0.00697  0.34150  1.0000
  C   C61       1.0  0.46560  0.97290  0.31715  1.0000
  C   C62       1.0  0.42455  0.97217  0.31813  1.0000
  H   H31       1.0  0.48023  0.94823  0.29771  1.0000
  H   H32       1.0  0.41062  0.94717  0.29815  1.0000
  C   C63       1.0  0.52804  0.00591  0.33801  1.0000
  C   C64       1.0  0.61159  0.00419  0.34048  1.0000
  C   C65       1.0  0.59062  0.00547  0.25840  1.0000
  C   C66       1.0  0.54923  0.00666  0.25543  1.0000
  H   H33       1.0  0.60589  0.00673  0.19917  1.0000
  N   N6        1.0  0.53140  0.00923  0.17370  1.0000
  H   H34       1.0  0.50323  0.01122  0.16790  1.0000
  H   H35       1.0  0.54644  0.01005  0.11810  1.0000
  C   C67       1.0  0.92361  0.04258  0.34252  1.0000
  C   C68       1.0  0.01038  0.21142  0.42414  1.0000
  C   C69       1.0  0.01048  0.17030  0.42402  1.0000
  C   C70       1.0  0.03175  0.29668  0.40049  1.0000
  C   C71       1.0  0.03147  0.33781  0.40072  1.0000
  C   C72       1.0  0.00624  0.35906  0.34338  1.0000
  C   C73       1.0  0.80088  0.00815  0.42330  1.0000
  C   C74       1.0  0.84200  0.00845  0.42349  1.0000
  C   C75       1.0  0.67465  0.02932  0.39869  1.0000
  C   C76       1.0  0.71577  0.02955  0.39873  1.0000
  C   C77       1.0  0.99821  0.83969  0.42130  1.0000
  C   C78       1.0  0.99765  0.79858  0.42116  1.0000
  C   C79       1.0  0.97570  0.67277  0.38207  1.0000
  C   C80       1.0  0.97561  0.71391  0.38182  1.0000
  C   C81       1.0  0.17286  0.99627  0.42133  1.0000
  C   C82       1.0  0.21398  0.99594  0.42091  1.0000
  C   C83       1.0  0.29853  0.97385  0.38114  1.0000
  C   C84       1.0  0.33966  0.97388  0.38093  1.0000
  H   H36       1.0  0.35393  0.95110  0.41098  1.0000
  H   H37       1.0  0.28432  0.95059  0.40943  1.0000
  H   H38       1.0  0.22825  0.98993  0.47983  1.0000
  H   H39       1.0  0.15840  0.99003  0.47992  1.0000
  H   H40       1.0  0.99202  0.85425  0.47979  1.0000
  H   H41       1.0  0.99150  0.78440  0.48014  1.0000
  H   H42       1.0  0.92835  0.13676  0.34248  1.0000
  H   H43       1.0  0.85649  0.01086  0.48354  1.0000
  H   H44       1.0  0.78675  0.00982  0.48388  1.0000
  H   H45       1.0  0.72976  0.04918  0.43948  1.0000
  H   H46       1.0  0.66031  0.04865  0.43952  1.0000
  H   H47       1.0  0.01262  0.15571  0.48399  1.0000
  H   H48       1.0  0.01191  0.22546  0.48486  1.0000
  H   H49       1.0  0.05067  0.35217  0.44191  1.0000
  H   H50       1.0  0.05127  0.28271  0.44147  1.0000
  H   H51       1.0  0.95223  0.72811  0.40953  1.0000
  H   H52       1.0  0.95281  0.65850  0.41181  1.0000
  C   C85       1.0  0.04132  0.58872  0.37100  1.0000
  C   C86       1.0  0.04283  0.54733  0.37081  1.0000
  C   C87       1.0  0.00616  0.46358  0.42237  1.0000
  C   C88       1.0  0.00568  0.42253  0.42343  1.0000
  H   H53       1.0  0.00534  0.47819  0.48253  1.0000
  H   H54       1.0  0.00412  0.40857  0.48426  1.0000
  H   H55       1.0  0.06554  0.60402  0.39092  1.0000
  N   N7        1.0  0.07681  0.52959  0.39494  1.0000
  H   H56       1.0  0.09968  0.54470  0.41246  1.0000
  H   H57       1.0  0.07977  0.50140  0.39387  1.0000
  C   C89       1.0  0.42386  0.03940  0.36836  1.0000
  C   C90       1.0  0.46525  0.04087  0.36807  1.0000
  C   C91       1.0  0.54883  0.00416  0.42015  1.0000
  C   C92       1.0  0.58986  0.00362  0.42135  1.0000
  H   H58       1.0  0.53417  0.00347  0.48027  1.0000
  H   H59       1.0  0.60378  0.00215  0.48225  1.0000
  H   H60       1.0  0.40863  0.06367  0.38807  1.0000
  N   N8        1.0  0.48311  0.07488  0.39183  1.0000
  H   H61       1.0  0.46807  0.09779  0.40914  1.0000
  H   H62       1.0  0.51131  0.07780  0.39068  1.0000
