data_image0
_chemical_formula_structural       C3NC3NC5NC5NC20H18N4C3NOCHCHC3NOCHCHC8H8C3H2CHC3H2CH
_chemical_formula_sum              "C62 N10 H36 O2"
_cell_length_a       25.8269
_cell_length_b       25.8247
_cell_length_c       14.7571
_cell_angle_alpha    90
_cell_angle_beta     90
_cell_angle_gamma    89.9701

_space_group_name_H-M_alt    "P 1"
_space_group_IT_number       1

loop_
  _space_group_symop_operation_xyz
  'x, y, z'

loop_
  _atom_site_type_symbol
  _atom_site_label
  _atom_site_symmetry_multiplicity
  _atom_site_fract_x
  _atom_site_fract_y
  _atom_site_fract_z
  _atom_site_occupancy
  C   C1        1.0  0.91115  0.14250  0.33354  1.0000
  C   C2        1.0  0.87320  0.10481  0.33400  1.0000
  C   C3        1.0  0.89721  0.05629  0.33291  1.0000
  N   N1        1.0  0.94881  0.06663  0.33240  1.0000
  C   C4        1.0  0.95950  0.11816  0.33310  1.0000
  C   C5        1.0  0.00809  0.14447  0.33297  1.0000
  C   C6        1.0  0.05704  0.11904  0.33161  1.0000
  N   N2        1.0  0.06708  0.06754  0.33066  1.0000
  C   C7        1.0  0.11851  0.05717  0.32978  1.0000
  C   C8        1.0  0.14307  0.10535  0.32980  1.0000
  C   C9        1.0  0.10537  0.14330  0.33158  1.0000
  C   C10       1.0  0.14362  0.00805  0.32855  1.0000
  C   C11       1.0  0.11696  0.95965  0.32824  1.0000
  N   N3        1.0  0.06535  0.94930  0.32889  1.0000
  C   C12       1.0  0.05464  0.89776  0.32851  1.0000
  C   C13       1.0  0.10299  0.87344  0.32734  1.0000
  C   C14       1.0  0.14094  0.91112  0.32779  1.0000
  C   C15       1.0  0.00605  0.87145  0.32858  1.0000
  C   C16       1.0  0.95711  0.89688  0.32965  1.0000
  N   N4        1.0  0.94710  0.94838  0.33071  1.0000
  C   C17       1.0  0.89567  0.95876  0.33211  1.0000
  C   C18       1.0  0.87108  0.91060  0.33163  1.0000
  C   C19       1.0  0.90877  0.87263  0.33066  1.0000
  C   C20       1.0  0.87058  0.00788  0.33319  1.0000
  C   C21       1.0  0.81498  0.00846  0.33477  1.0000
  C   C22       1.0  0.70387  0.00883  0.33777  1.0000
  C   C23       1.0  0.73157  0.01864  0.25666  1.0000
  C   C24       1.0  0.78618  0.01831  0.25512  1.0000
  C   C25       1.0  0.00626  0.81582  0.32776  1.0000
  C   C26       1.0  0.00643  0.70467  0.32620  1.0000
  C   C27       1.0  0.99625  0.73335  0.24659  1.0000
  C   C28       1.0  0.99613  0.78798  0.24716  1.0000
  C   C29       1.0  0.19925  0.00744  0.32780  1.0000
  C   C30       1.0  0.22701  0.99762  0.24700  1.0000
  C   C31       1.0  0.28165  0.99752  0.24632  1.0000
  C   C32       1.0  0.31041  0.00724  0.32600  1.0000
  C   C33       1.0  0.00783  0.20008  0.33447  1.0000
  C   C34       1.0  0.01733  0.22898  0.25481  1.0000
  C   C35       1.0  0.00764  0.31122  0.33768  1.0000
  C   C36       1.0  0.01740  0.28360  0.25644  1.0000
  H   H1        1.0  0.02494  0.30291  0.19751  1.0000
  H   H2        1.0  0.02453  0.21034  0.19490  1.0000
  H   H3        1.0  0.90384  0.18139  0.33378  1.0000
  H   H4        1.0  0.83436  0.11237  0.33497  1.0000
  H   H5        1.0  0.97503  0.04023  0.33204  1.0000
  H   H6        1.0  0.03914  0.97570  0.32935  1.0000
  H   H7        1.0  0.11271  0.18218  0.33240  1.0000
  H   H8        1.0  0.18199  0.11245  0.32893  1.0000
  H   H9        1.0  0.20755  0.99058  0.18785  1.0000
  H   H10       1.0  0.30045  0.99033  0.18654  1.0000
  H   H11       1.0  0.17978  0.90354  0.32762  1.0000
  H   H12       1.0  0.11029  0.83454  0.32646  1.0000
  H   H13       1.0  0.83215  0.90353  0.33210  1.0000
  H   H14       1.0  0.90143  0.83375  0.33067  1.0000
  H   H15       1.0  0.98859  0.80739  0.18814  1.0000
  H   H16       1.0  0.98877  0.71448  0.18699  1.0000
  H   H17       1.0  0.80489  0.02541  0.19525  1.0000
  H   H18       1.0  0.71231  0.02632  0.19772  1.0000
  N   N5        1.0  0.00635  0.65285  0.31954  1.0000
  N   N6        1.0  0.36224  0.00716  0.31921  1.0000
  N   N7        1.0  0.00740  0.36303  0.34501  1.0000
  N   N8        1.0  0.65206  0.00860  0.34495  1.0000
  C   C37       1.0  0.00893  0.45296  0.31080  1.0000
  C   C38       1.0  0.00808  0.49162  0.24266  1.0000
  C   C39       1.0  0.00807  0.54441  0.26385  1.0000
  N   N9        1.0  0.00753  0.57003  0.18548  1.0000
  O   O1        1.0  0.00748  0.48385  0.15124  1.0000
  C   C40       1.0  0.00711  0.53375  0.12050  1.0000
  H   H19       1.0  0.00672  0.54273  0.05311  1.0000
  C   C41       1.0  0.00967  0.40042  0.28716  1.0000
  H   H20       1.0  0.01179  0.39140  0.22185  1.0000
  C   C42       1.0  0.56216  0.00989  0.31054  1.0000
  C   C43       1.0  0.52352  0.00873  0.24238  1.0000
  C   C44       1.0  0.47073  0.00866  0.26351  1.0000
  N   N10       1.0  0.44514  0.00778  0.18514  1.0000
  O   O2        1.0  0.53134  0.00784  0.15097  1.0000
  C   C45       1.0  0.48144  0.00724  0.12019  1.0000
  H   H21       1.0  0.47250  0.00660  0.05280  1.0000
  C   C46       1.0  0.61472  0.01065  0.28697  1.0000
  H   H22       1.0  0.62377  0.01253  0.22166  1.0000
  C   C47       1.0  0.78748  0.99900  0.41596  1.0000
  C   C48       1.0  0.73286  0.99922  0.41724  1.0000
  C   C49       1.0  0.01655  0.78732  0.40758  1.0000
  C   C50       1.0  0.01681  0.73269  0.40675  1.0000
  C   C51       1.0  0.28247  0.01727  0.40677  1.0000
  C   C52       1.0  0.22785  0.01722  0.40771  1.0000
  C   C53       1.0  0.99836  0.22750  0.41575  1.0000
  C   C54       1.0  0.99828  0.28213  0.41713  1.0000
  H   H23       1.0  0.99128  0.30069  0.47720  1.0000
  H   H24       1.0  0.99148  0.20779  0.47472  1.0000
  H   H25       1.0  0.20897  0.02470  0.46729  1.0000
  H   H26       1.0  0.30156  0.02504  0.46584  1.0000
  H   H27       1.0  0.02415  0.80626  0.46704  1.0000
  H   H28       1.0  0.02488  0.71364  0.46575  1.0000
  H   H29       1.0  0.71424  0.99213  0.47722  1.0000
  H   H30       1.0  0.80713  0.99179  0.47487  1.0000
  C   C55       1.0  0.00889  0.56290  0.35410  1.0000
  C   C56       1.0  0.00962  0.52428  0.42266  1.0000
  C   C57       1.0  0.00962  0.47080  0.40174  1.0000
  H   H31       1.0  0.01044  0.44489  0.45420  1.0000
  H   H32       1.0  0.01035  0.53477  0.48958  1.0000
  C   C58       1.0  0.00966  0.61553  0.37738  1.0000
  H   H33       1.0  0.01272  0.62462  0.44257  1.0000
  C   C59       1.0  0.45221  0.00972  0.35374  1.0000
  C   C60       1.0  0.49081  0.01076  0.42232  1.0000
  C   C61       1.0  0.54429  0.01083  0.40145  1.0000
  H   H34       1.0  0.57017  0.01188  0.45393  1.0000
  H   H35       1.0  0.48030  0.01168  0.48922  1.0000
  C   C62       1.0  0.39958  0.01041  0.37701  1.0000
  H   H36       1.0  0.39051  0.01345  0.44221  1.0000
