data_image0
_chemical_formula_structural       H2C6NC2NC4NC3NC35H23C21H18C16H16C4HNO2C2HNO2C4HNO2C4HNO2C2HNO2C4HNO2C18H17C3NC3NC2NC5NC34H24C3NC3NC5NC5NC36H26C2HNO2C4HNO2C2HNO2C2HNO2C4HNO2C2HNO2
_chemical_formula_sum              "H138 C240 N24 O24"
_cell_length_a       58.7085
_cell_length_b       58.7085
_cell_length_c       14.9667
_cell_angle_alpha    89.7738
_cell_angle_beta     90.2262
_cell_angle_gamma    120

_space_group_name_H-M_alt    "P 1"
_space_group_IT_number       1

loop_
  _space_group_symop_operation_xyz
  'x, y, z'

loop_
  _atom_site_type_symbol
  _atom_site_label
  _atom_site_symmetry_multiplicity
  _atom_site_fract_x
  _atom_site_fract_y
  _atom_site_fract_z
  _atom_site_occupancy
  H   H1        1.0  0.00876  0.46605  0.32683  1.0000
  H   H2        1.0  0.00905  0.63828  0.32390  1.0000
  C   C1        1.0  0.02014  0.48609  0.32846  1.0000
  C   C2        1.0  0.01158  0.50441  0.33214  1.0000
  C   C3        1.0  0.01169  0.60265  0.33032  1.0000
  C   C4        1.0  0.02036  0.62955  0.32671  1.0000
  C   C5        1.0  0.04730  0.49965  0.32688  1.0000
  C   C6        1.0  0.05597  0.52655  0.33039  1.0000
  N   N1        1.0  0.03380  0.52828  0.33313  1.0000
  C   C7        1.0  0.98482  0.49806  0.33480  1.0000
  C   C8        1.0  0.97621  0.51677  0.33538  1.0000
  N   N2        1.0  0.99108  0.54328  0.33263  1.0000
  C   C9        1.0  0.97624  0.55496  0.33338  1.0000
  C   C10       1.0  0.95011  0.53457  0.33684  1.0000
  C   C11       1.0  0.95010  0.51107  0.33792  1.0000
  C   C12       1.0  0.98489  0.58229  0.33108  1.0000
  N   N3        1.0  0.03386  0.60090  0.33313  1.0000
  C   C13       1.0  0.05607  0.62479  0.33214  1.0000
  C   C14       1.0  0.04751  0.64310  0.32834  1.0000
  C   C15       1.0  0.08284  0.63114  0.33490  1.0000
  N   N4        1.0  0.07658  0.58592  0.33281  1.0000
  C   C16       1.0  0.09142  0.57424  0.33351  1.0000
  C   C17       1.0  0.11755  0.59462  0.33693  1.0000
  C   C18       1.0  0.11757  0.61813  0.33805  1.0000
  C   C19       1.0  0.08277  0.54691  0.33114  1.0000
  C   C20       1.0  0.10253  0.53957  0.32874  1.0000
  C   C21       1.0  0.11556  0.54102  0.24802  1.0000
  C   C22       1.0  0.13641  0.53569  0.24675  1.0000
  C   C23       1.0  0.14472  0.52861  0.32581  1.0000
  C   C24       1.0  0.16693  0.52481  0.32538  1.0000
  C   C25       1.0  0.21295  0.54033  0.28521  1.0000
  C   C26       1.0  0.19062  0.54330  0.28311  1.0000
  C   C27       1.0  0.10260  0.65822  0.33708  1.0000
  C   C28       1.0  0.11237  0.67269  0.25711  1.0000
  C   C29       1.0  0.13291  0.69902  0.25938  1.0000
  C   C30       1.0  0.14441  0.71156  0.34137  1.0000
  C   C31       1.0  0.16629  0.73777  0.34322  1.0000
  C   C32       1.0  0.16666  0.75807  0.29079  1.0000
  C   C33       1.0  0.18867  0.78364  0.29089  1.0000
  C   C34       1.0  0.21120  0.78990  0.34320  1.0000
  C   C35       1.0  0.96515  0.58967  0.32882  1.0000
  C   C36       1.0  0.92340  0.60131  0.32588  1.0000
  C   C37       1.0  0.93131  0.59396  0.24695  1.0000
  C   C38       1.0  0.95195  0.58831  0.24821  1.0000
  C   C39       1.0  0.90152  0.60561  0.32540  1.0000
  C   C40       1.0  0.87758  0.58742  0.28361  1.0000
  C   C41       1.0  0.85559  0.59094  0.28555  1.0000
  C   C42       1.0  0.85688  0.61294  0.32857  1.0000
  C   C43       1.0  0.96505  0.47097  0.33700  1.0000
  C   C44       1.0  0.95494  0.45670  0.25700  1.0000
  C   C45       1.0  0.93419  0.43046  0.25928  1.0000
  C   C46       1.0  0.92281  0.41784  0.34131  1.0000
  C   C47       1.0  0.90062  0.39181  0.34318  1.0000
  C   C48       1.0  0.85504  0.34012  0.34298  1.0000
  C   C49       1.0  0.87732  0.34607  0.29024  1.0000
  C   C50       1.0  0.89966  0.37143  0.29022  1.0000
  H   H3        1.0  0.87758  0.33187  0.25150  1.0000
  H   H4        1.0  0.91539  0.37481  0.25150  1.0000
  H   H5        1.0  0.92676  0.42099  0.19988  1.0000
  H   H6        1.0  0.96221  0.46551  0.19648  1.0000
  H   H7        1.0  0.05861  0.49093  0.32415  1.0000
  H   H8        1.0  0.03383  0.54461  0.33750  1.0000
  H   H9        1.0  0.03383  0.58458  0.33764  1.0000
  H   H10       1.0  0.93354  0.49293  0.34010  1.0000
  H   H11       1.0  0.93357  0.53619  0.33858  1.0000
  H   H12       1.0  0.95694  0.58271  0.19019  1.0000
  H   H13       1.0  0.92204  0.59258  0.18748  1.0000
  H   H14       1.0  0.05889  0.66314  0.32672  1.0000
  H   H15       1.0  0.13413  0.63627  0.34016  1.0000
  H   H16       1.0  0.10496  0.66397  0.19662  1.0000
  H   H17       1.0  0.14006  0.70866  0.20000  1.0000
  H   H18       1.0  0.18799  0.79776  0.25255  1.0000
  H   H19       1.0  0.15074  0.75446  0.25239  1.0000
  H   H20       1.0  0.19215  0.55966  0.25277  1.0000
  H   H21       1.0  0.22993  0.55450  0.25600  1.0000
  H   H22       1.0  0.14559  0.53718  0.18723  1.0000
  H   H23       1.0  0.11033  0.54652  0.18996  1.0000
  H   H24       1.0  0.87563  0.57089  0.25364  1.0000
  H   H25       1.0  0.83841  0.57697  0.25670  1.0000
  C   C51       1.0  0.54521  0.52012  0.33607  1.0000
  C   C52       1.0  0.56560  0.51438  0.33939  1.0000
  C   C53       1.0  0.58910  0.53786  0.34044  1.0000
  C   C54       1.0  0.55918  0.67356  0.25076  1.0000
  C   C55       1.0  0.56449  0.69973  0.24949  1.0000
  C   C56       1.0  0.55986  0.77156  0.28785  1.0000
  C   C57       1.0  0.55688  0.74627  0.28583  1.0000
  C   C58       1.0  0.42754  0.53864  0.25929  1.0000
  C   C59       1.0  0.40120  0.53284  0.26125  1.0000
  C   C60       1.0  0.34214  0.50748  0.29213  1.0000
  C   C61       1.0  0.31656  0.50391  0.29185  1.0000
  C   C62       1.0  0.31026  0.52011  0.34376  1.0000
  C   C63       1.0  0.50619  0.43638  0.24966  1.0000
  C   C64       1.0  0.51184  0.46266  0.25092  1.0000
  C   C65       1.0  0.51276  0.38912  0.28628  1.0000
  C   C66       1.0  0.50924  0.36361  0.28819  1.0000
  C   C67       1.0  0.64342  0.59727  0.25920  1.0000
  C   C68       1.0  0.66966  0.60275  0.26119  1.0000
  C   C69       1.0  0.76007  0.61378  0.34360  1.0000
  C   C70       1.0  0.75407  0.63024  0.29119  1.0000
  C   C71       1.0  0.72871  0.62722  0.29157  1.0000
  H   H26       1.0  0.76823  0.64478  0.25238  1.0000
  H   H27       1.0  0.72529  0.63964  0.25303  1.0000
  H   H28       1.0  0.67910  0.60497  0.20170  1.0000
  H   H29       1.0  0.63457  0.59588  0.19879  1.0000
  H   H30       1.0  0.60725  0.53944  0.34254  1.0000
  H   H31       1.0  0.51744  0.47337  0.19291  1.0000
  H   H32       1.0  0.50755  0.42859  0.19017  1.0000
  H   H33       1.0  0.46189  0.46963  0.32697  1.0000
  H   H34       1.0  0.43628  0.54001  0.19891  1.0000
  H   H35       1.0  0.39158  0.53041  0.20178  1.0000
  H   H36       1.0  0.30247  0.48916  0.25350  1.0000
  H   H37       1.0  0.34577  0.49520  0.25403  1.0000
  H   H38       1.0  0.54051  0.73149  0.25547  1.0000
  H   H39       1.0  0.54567  0.77443  0.25869  1.0000
  H   H40       1.0  0.56300  0.70754  0.18995  1.0000
  H   H41       1.0  0.55364  0.66293  0.19273  1.0000
  H   H42       1.0  0.52928  0.40376  0.25625  1.0000
  H   H43       1.0  0.52321  0.36046  0.25928  1.0000
  C   C72       1.0  0.42674  0.98472  0.25187  1.0000
  C   C73       1.0  0.40057  0.96386  0.25010  1.0000
  C   C74       1.0  0.32869  0.88728  0.28697  1.0000
  C   C75       1.0  0.35399  0.90960  0.28545  1.0000
  C   C76       1.0  0.56154  0.98788  0.26173  1.0000
  C   C77       1.0  0.56737  0.96736  0.26377  1.0000
  C   C78       1.0  0.59272  0.93360  0.29477  1.0000
  C   C79       1.0  0.59628  0.91158  0.29450  1.0000
  C   C80       1.0  0.66365  0.16874  0.25025  1.0000
  C   C81       1.0  0.63738  0.14811  0.25206  1.0000
  C   C82       1.0  0.71099  0.22251  0.28575  1.0000
  C   C83       1.0  0.73651  0.24450  0.28716  1.0000
  C   C84       1.0  0.50288  0.14514  0.26160  1.0000
  C   C85       1.0  0.49737  0.16588  0.26364  1.0000
  C   C86       1.0  0.46994  0.22277  0.29379  1.0000
  C   C87       1.0  0.47295  0.20043  0.29414  1.0000
  H   H44       1.0  0.45539  0.22247  0.25502  1.0000
  H   H45       1.0  0.46051  0.18466  0.25563  1.0000
  H   H46       1.0  0.49518  0.17325  0.20417  1.0000
  H   H47       1.0  0.50425  0.13780  0.20117  1.0000
  H   H48       1.0  0.62657  0.14304  0.19423  1.0000
  H   H49       1.0  0.67134  0.17793  0.19060  1.0000
  H   H50       1.0  0.56016  0.99536  0.20133  1.0000
  H   H51       1.0  0.56977  0.96026  0.20431  1.0000
  H   H52       1.0  0.61103  0.91232  0.25613  1.0000
  H   H53       1.0  0.60498  0.94957  0.25661  1.0000
  H   H54       1.0  0.36881  0.90810  0.25533  1.0000
  H   H55       1.0  0.32586  0.87033  0.25764  1.0000
  H   H56       1.0  0.39285  0.95475  0.19039  1.0000
  H   H57       1.0  0.43746  0.99000  0.19402  1.0000
  H   H58       1.0  0.69629  0.22443  0.25607  1.0000
  H   H59       1.0  0.73961  0.26166  0.25819  1.0000
  C   C88       1.0  0.28467  0.51747  0.34082  1.0000
  C   C89       1.0  0.27141  0.51433  0.25883  1.0000
  C   C90       1.0  0.24709  0.51387  0.25392  1.0000
  C   C91       1.0  0.23540  0.51648  0.33336  1.0000
  H   H60       1.0  0.27995  0.51334  0.20056  1.0000
  N   N5        1.0  0.23426  0.51072  0.17064  1.0000
  O   O1        1.0  0.24820  0.52898  0.11715  1.0000
  O   O2        1.0  0.22844  0.48913  0.13498  1.0000
  C   C92       1.0  0.58586  0.85608  0.26151  1.0000
  C   C93       1.0  0.58630  0.83223  0.25660  1.0000
  H   H61       1.0  0.58683  0.86571  0.20323  1.0000
  N   N6        1.0  0.58944  0.82270  0.17331  1.0000
  O   O3        1.0  0.57119  0.81851  0.11984  1.0000
  O   O4        1.0  0.61103  0.83854  0.13765  1.0000
  C   C94       1.0  0.23415  0.81549  0.34071  1.0000
  C   C95       1.0  0.24422  0.82885  0.25894  1.0000
  C   C96       1.0  0.26807  0.85316  0.25452  1.0000
  C   C97       1.0  0.28240  0.86477  0.33425  1.0000
  H   H62       1.0  0.23468  0.82036  0.20047  1.0000
  N   N7        1.0  0.27773  0.86608  0.17144  1.0000
  O   O5        1.0  0.28203  0.85220  0.11799  1.0000
  O   O6        1.0  0.26194  0.87193  0.13553  1.0000
  C   C98       1.0  0.78540  0.61583  0.34056  1.0000
  C   C99       1.0  0.79836  0.61860  0.25848  1.0000
  C   C100      1.0  0.82238  0.61847  0.25355  1.0000
  C   C101      1.0  0.83406  0.61562  0.33305  1.0000
  H   H63       1.0  0.78981  0.61975  0.20018  1.0000
  N   N8        1.0  0.83492  0.62126  0.17018  1.0000
  O   O7        1.0  0.82058  0.60308  0.11719  1.0000
  O   O8        1.0  0.84109  0.64293  0.13394  1.0000
  C   C102      1.0  0.48158  0.27877  0.26107  1.0000
  C   C103      1.0  0.48171  0.30293  0.25615  1.0000
  H   H64       1.0  0.48043  0.26918  0.20276  1.0000
  N   N9        1.0  0.47892  0.31284  0.17280  1.0000
  O   O9        1.0  0.49709  0.31679  0.11978  1.0000
  O   O10       1.0  0.45724  0.29742  0.13659  1.0000
  C   C104      1.0  0.83176  0.31478  0.34041  1.0000
  C   C105      1.0  0.82130  0.30171  0.25856  1.0000
  C   C106      1.0  0.79714  0.27769  0.25411  1.0000
  C   C107      1.0  0.78289  0.26610  0.33389  1.0000
  H   H65       1.0  0.83079  0.31021  0.20007  1.0000
  N   N10       1.0  0.78710  0.26506  0.17095  1.0000
  O   O11       1.0  0.78307  0.27934  0.11793  1.0000
  O   O12       1.0  0.80247  0.25884  0.13454  1.0000
  C   C108      1.0  0.09145  0.61243  0.33559  1.0000
  C   C109      1.0  0.13113  0.52661  0.40607  1.0000
  C   C110      1.0  0.11043  0.53217  0.40773  1.0000
  C   C111      1.0  0.16633  0.50310  0.36919  1.0000
  C   C112      1.0  0.18860  0.49996  0.37058  1.0000
  C   C113      1.0  0.21225  0.51859  0.32880  1.0000
  C   C114      1.0  0.13424  0.69693  0.42123  1.0000
  C   C115      1.0  0.11360  0.67066  0.41927  1.0000
  C   C116      1.0  0.21074  0.76957  0.39577  1.0000
  C   C117      1.0  0.18872  0.74406  0.39598  1.0000
  C   C118      1.0  0.95761  0.59726  0.40770  1.0000
  C   C119      1.0  0.93713  0.60315  0.40604  1.0000
  C   C120      1.0  0.88078  0.63129  0.36985  1.0000
  C   C121      1.0  0.90271  0.62760  0.36858  1.0000
  C   C122      1.0  0.95421  0.45843  0.41923  1.0000
  C   C123      1.0  0.93335  0.43226  0.42120  1.0000
  C   C124      1.0  0.87843  0.38583  0.39633  1.0000
  C   C125      1.0  0.85610  0.36053  0.39610  1.0000
  H   H66       1.0  0.84018  0.35745  0.43316  1.0000
  H   H67       1.0  0.87792  0.40014  0.43368  1.0000
  H   H68       1.0  0.92584  0.42383  0.48196  1.0000
  H   H69       1.0  0.96106  0.46844  0.47811  1.0000
  H   H70       1.0  0.96665  0.59806  0.46720  1.0000
  H   H71       1.0  0.93163  0.60779  0.46494  1.0000
  H   H72       1.0  0.13410  0.59301  0.33860  1.0000
  H   H73       1.0  0.10695  0.66053  0.47814  1.0000
  H   H74       1.0  0.14184  0.70530  0.48197  1.0000
  H   H75       1.0  0.18965  0.72983  0.43295  1.0000
  H   H76       1.0  0.22685  0.77290  0.43256  1.0000
  H   H77       1.0  0.10155  0.53137  0.46734  1.0000
  H   H78       1.0  0.13694  0.52218  0.46507  1.0000
  H   H79       1.0  0.18748  0.48402  0.40280  1.0000
  H   H80       1.0  0.14953  0.48919  0.40004  1.0000
  H   H81       1.0  0.91971  0.64132  0.39901  1.0000
  H   H82       1.0  0.88233  0.64742  0.40161  1.0000
  C   C126      1.0  0.61408  0.63291  0.33116  1.0000
  C   C127      1.0  0.60053  0.64651  0.32965  1.0000
  C   C128      1.0  0.57362  0.62827  0.33319  1.0000
  N   N11       1.0  0.57189  0.60436  0.33592  1.0000
  C   C129      1.0  0.59577  0.60603  0.33483  1.0000
  C   C130      1.0  0.60212  0.58561  0.33741  1.0000
  C   C131      1.0  0.58341  0.55829  0.33805  1.0000
  N   N12       1.0  0.55690  0.54665  0.33538  1.0000
  C   C132      1.0  0.51788  0.50145  0.33383  1.0000
  C   C133      1.0  0.49752  0.50790  0.33317  1.0000
  N   N13       1.0  0.49926  0.53180  0.33592  1.0000
  C   C134      1.0  0.47539  0.53014  0.33490  1.0000
  C   C135      1.0  0.45707  0.50326  0.33128  1.0000
  C   C136      1.0  0.47062  0.48966  0.32971  1.0000
  C   C137      1.0  0.46903  0.55055  0.33749  1.0000
  C   C138      1.0  0.48774  0.57787  0.33815  1.0000
  N   N14       1.0  0.51425  0.58951  0.33554  1.0000
  C   C139      1.0  0.52593  0.61603  0.33623  1.0000
  C   C140      1.0  0.50555  0.62177  0.33951  1.0000
  C   C141      1.0  0.48204  0.59828  0.34052  1.0000
  C   C142      1.0  0.55326  0.63471  0.33393  1.0000
  C   C143      1.0  0.56061  0.66182  0.33152  1.0000
  C   C144      1.0  0.57158  0.71499  0.32853  1.0000
  C   C145      1.0  0.57355  0.70322  0.40882  1.0000
  C   C146      1.0  0.56802  0.67696  0.41049  1.0000
  C   C147      1.0  0.57537  0.74098  0.32809  1.0000
  C   C148      1.0  0.59708  0.76202  0.37189  1.0000
  C   C149      1.0  0.60021  0.78742  0.37327  1.0000
  C   C150      1.0  0.58158  0.79251  0.33148  1.0000
  C   C151      1.0  0.44195  0.54322  0.33941  1.0000
  C   C152      1.0  0.38860  0.53168  0.34309  1.0000
  C   C153      1.0  0.40318  0.53603  0.42309  1.0000
  C   C154      1.0  0.42945  0.54166  0.42144  1.0000
  C   C155      1.0  0.36239  0.52733  0.34461  1.0000
  C   C156      1.0  0.33054  0.53990  0.39640  1.0000
  C   C157      1.0  0.35606  0.54341  0.39695  1.0000
  C   C158      1.0  0.51051  0.47434  0.33156  1.0000
  C   C159      1.0  0.50291  0.45905  0.41044  1.0000
  C   C160      1.0  0.49703  0.43268  0.40877  1.0000
  C   C161      1.0  0.49886  0.42096  0.32859  1.0000
  C   C162      1.0  0.49456  0.39477  0.32810  1.0000
  C   C163      1.0  0.48724  0.34280  0.33121  1.0000
  C   C164      1.0  0.46890  0.34827  0.37253  1.0000
  C   C165      1.0  0.47258  0.37388  0.37130  1.0000
  C   C166      1.0  0.62920  0.59291  0.33935  1.0000
  C   C167      1.0  0.64180  0.59443  0.42142  1.0000
  C   C168      1.0  0.68234  0.60381  0.34307  1.0000
  C   C169      1.0  0.66798  0.59973  0.42310  1.0000
  C   C170      1.0  0.70838  0.60766  0.34461  1.0000
  C   C171      1.0  0.71441  0.59133  0.39747  1.0000
  C   C172      1.0  0.73971  0.59430  0.39683  1.0000
  H   H83       1.0  0.74283  0.58138  0.43370  1.0000
  H   H84       1.0  0.70014  0.57642  0.43487  1.0000
  H   H85       1.0  0.67645  0.60050  0.48376  1.0000
  H   H86       1.0  0.63183  0.59110  0.48040  1.0000
  H   H87       1.0  0.63412  0.64156  0.32947  1.0000
  H   H88       1.0  0.60924  0.66655  0.32691  1.0000
  H   H89       1.0  0.55556  0.58806  0.34028  1.0000
  H   H90       1.0  0.51560  0.54810  0.34003  1.0000
  H   H91       1.0  0.56398  0.49622  0.34109  1.0000
  H   H92       1.0  0.50216  0.46718  0.46996  1.0000
  H   H93       1.0  0.49241  0.42242  0.46767  1.0000
  H   H94       1.0  0.43703  0.49460  0.32970  1.0000
  H   H95       1.0  0.50716  0.63993  0.34112  1.0000
  H   H96       1.0  0.46390  0.59670  0.34253  1.0000
  H   H97       1.0  0.43955  0.54507  0.48040  1.0000
  H   H98       1.0  0.39477  0.53517  0.48372  1.0000
  H   H99       1.0  0.37024  0.55849  0.43404  1.0000
  H   H100      1.0  0.32718  0.55262  0.43298  1.0000
  H   H101      1.0  0.56879  0.66876  0.47012  1.0000
  H   H102      1.0  0.57800  0.71335  0.46779  1.0000
  H   H103      1.0  0.61616  0.80218  0.40550  1.0000
  H   H104      1.0  0.61099  0.75906  0.40274  1.0000
  H   H105      1.0  0.45886  0.37710  0.40177  1.0000
  H   H106      1.0  0.45278  0.33362  0.40432  1.0000
  C   C173      1.0  0.46726  0.08002  0.33343  1.0000
  C   C174      1.0  0.45366  0.05286  0.33174  1.0000
  C   C175      1.0  0.47190  0.04420  0.33520  1.0000
  N   N15       1.0  0.49581  0.06636  0.33810  1.0000
  C   C176      1.0  0.49414  0.08858  0.33710  1.0000
  C   C177      1.0  0.51456  0.11534  0.33972  1.0000
  C   C178      1.0  0.54188  0.12395  0.34028  1.0000
  N   N16       1.0  0.55352  0.10909  0.33755  1.0000
  C   C179      1.0  0.58004  0.12393  0.33810  1.0000
  C   C180      1.0  0.58579  0.15005  0.34138  1.0000
  C   C181      1.0  0.56230  0.15007  0.34260  1.0000
  C   C182      1.0  0.59872  0.11528  0.33571  1.0000
  C   C183      1.0  0.59227  0.08848  0.33513  1.0000
  N   N17       1.0  0.56837  0.06631  0.33812  1.0000
  C   C184      1.0  0.57004  0.04409  0.33713  1.0000
  C   C185      1.0  0.59691  0.05266  0.33329  1.0000
  C   C186      1.0  0.61051  0.07981  0.33152  1.0000
  C   C187      1.0  0.54964  0.01733  0.33983  1.0000
  C   C188      1.0  0.52231  0.00871  0.34039  1.0000
  N   N18       1.0  0.51068  0.02359  0.33768  1.0000
  C   C189      1.0  0.48415  0.00874  0.33817  1.0000
  C   C190      1.0  0.47841  0.98261  0.34144  1.0000
  C   C191      1.0  0.50190  0.98259  0.34267  1.0000
  C   C192      1.0  0.46547  0.01739  0.33573  1.0000
  C   C193      1.0  0.43837  0.99763  0.33287  1.0000
  C   C194      1.0  0.38521  0.95545  0.32888  1.0000
  C   C195      1.0  0.39685  0.96892  0.40942  1.0000
  C   C196      1.0  0.42311  0.98964  0.41159  1.0000
  C   C197      1.0  0.35921  0.93325  0.32790  1.0000
  C   C198      1.0  0.33811  0.93380  0.37137  1.0000
  C   C199      1.0  0.31270  0.91153  0.37220  1.0000
  C   C200      1.0  0.30767  0.88793  0.33021  1.0000
  C   C201      1.0  0.55697  0.99757  0.34181  1.0000
  C   C202      1.0  0.56851  0.95577  0.34562  1.0000
  C   C203      1.0  0.56416  0.96584  0.42559  1.0000
  C   C204      1.0  0.55853  0.98649  0.42388  1.0000
  C   C205      1.0  0.57286  0.93390  0.34720  1.0000
  C   C206      1.0  0.58008  0.88898  0.34643  1.0000
  C   C207      1.0  0.56031  0.88939  0.39913  1.0000
  C   C208      1.0  0.55680  0.91140  0.39964  1.0000
  C   C209      1.0  0.62583  0.13502  0.33294  1.0000
  C   C210      1.0  0.64124  0.14266  0.41154  1.0000
  C   C211      1.0  0.66760  0.16315  0.40935  1.0000
  C   C212      1.0  0.67920  0.17676  0.32890  1.0000
  C   C213      1.0  0.70539  0.19863  0.32784  1.0000
  C   C214      1.0  0.75737  0.24327  0.32989  1.0000
  C   C215      1.0  0.75196  0.21942  0.37144  1.0000
  C   C216      1.0  0.72634  0.19749  0.37074  1.0000
  C   C217      1.0  0.50725  0.13511  0.34172  1.0000
  C   C218      1.0  0.50576  0.14605  0.42382  1.0000
  C   C219      1.0  0.49636  0.17735  0.34553  1.0000
  C   C220      1.0  0.50045  0.16691  0.42554  1.0000
  C   C221      1.0  0.49251  0.19954  0.34711  1.0000
  C   C222      1.0  0.50886  0.22180  0.39997  1.0000
  C   C223      1.0  0.50591  0.24414  0.39929  1.0000
  C   C224      1.0  0.48642  0.24513  0.34614  1.0000
  H   H107      1.0  0.51883  0.26010  0.43620  1.0000
  H   H108      1.0  0.52377  0.22235  0.43733  1.0000
  H   H109      1.0  0.49971  0.17449  0.48621  1.0000
  H   H110      1.0  0.50909  0.13927  0.48277  1.0000
  H   H111      1.0  0.45860  0.09140  0.33179  1.0000
  H   H112      1.0  0.43362  0.04155  0.32892  1.0000
  H   H113      1.0  0.51211  0.06633  0.34221  1.0000
  H   H114      1.0  0.55208  0.06633  0.34259  1.0000
  H   H115      1.0  0.56072  0.16663  0.34466  1.0000
  H   H116      1.0  0.60395  0.16660  0.34295  1.0000
  H   H117      1.0  0.63321  0.13371  0.47124  1.0000
  H   H118      1.0  0.67796  0.16872  0.46805  1.0000
  H   H119      1.0  0.63054  0.09113  0.32854  1.0000
  H   H120      1.0  0.60557  0.04128  0.33156  1.0000
  H   H121      1.0  0.46026  0.96606  0.34292  1.0000
  H   H122      1.0  0.50348  0.96603  0.34469  1.0000
  H   H123      1.0  0.55512  0.99306  0.48282  1.0000
  H   H124      1.0  0.56502  0.95818  0.48625  1.0000
  H   H125      1.0  0.54170  0.91042  0.43660  1.0000
  H   H126      1.0  0.54756  0.87322  0.43560  1.0000
  H   H127      1.0  0.43121  0.99844  0.47137  1.0000
  H   H128      1.0  0.38663  0.96307  0.46821  1.0000
  H   H129      1.0  0.29789  0.91262  0.40417  1.0000
  H   H130      1.0  0.34101  0.95056  0.40233  1.0000
  H   H131      1.0  0.72316  0.18053  0.40137  1.0000
  H   H132      1.0  0.76665  0.21791  0.40303  1.0000
  C   C225      1.0  0.24804  0.51887  0.41683  1.0000
  C   C226      1.0  0.27233  0.51925  0.41926  1.0000
  H   H133      1.0  0.28126  0.52122  0.47990  1.0000
  N   N19       1.0  0.23681  0.52188  0.49646  1.0000
  O   O13       1.0  0.25167  0.54352  0.53371  1.0000
  O   O14       1.0  0.23175  0.50364  0.55107  1.0000
  C   C227      1.0  0.58271  0.86603  0.34350  1.0000
  C   C228      1.0  0.58369  0.81777  0.33604  1.0000
  C   C229      1.0  0.58130  0.82785  0.41950  1.0000
  C   C230      1.0  0.58093  0.85176  0.42194  1.0000
  H   H134      1.0  0.57896  0.85860  0.48257  1.0000
  N   N20       1.0  0.57829  0.81345  0.49914  1.0000
  O   O15       1.0  0.55666  0.80661  0.53639  1.0000
  O   O16       1.0  0.59654  0.82652  0.55375  1.0000
  C   C231      1.0  0.27219  0.85206  0.41749  1.0000
  C   C232      1.0  0.24828  0.82776  0.41944  1.0000
  H   H135      1.0  0.24135  0.81876  0.47993  1.0000
  N   N21       1.0  0.28646  0.86320  0.49741  1.0000
  O   O17       1.0  0.29325  0.84830  0.53474  1.0000
  O   O18       1.0  0.27330  0.86821  0.55181  1.0000
  C   C233      1.0  0.82174  0.61360  0.41659  1.0000
  C   C234      1.0  0.79776  0.61382  0.41904  1.0000
  H   H136      1.0  0.78904  0.61211  0.47974  1.0000
  N   N22       1.0  0.83296  0.61036  0.49630  1.0000
  O   O19       1.0  0.81784  0.58886  0.53415  1.0000
  O   O20       1.0  0.83855  0.62875  0.55041  1.0000
  C   C235      1.0  0.48437  0.26842  0.34313  1.0000
  C   C236      1.0  0.48457  0.31729  0.33567  1.0000
  C   C237      1.0  0.48660  0.30683  0.41919  1.0000
  C   C238      1.0  0.48639  0.28262  0.42162  1.0000
  H   H137      1.0  0.48811  0.27550  0.48231  1.0000
  N   N23       1.0  0.48985  0.32113  0.49892  1.0000
  O   O21       1.0  0.51135  0.32744  0.53673  1.0000
  O   O22       1.0  0.47146  0.30822  0.55304  1.0000
  C   C239      1.0  0.79347  0.27851  0.41719  1.0000
  C   C240      1.0  0.81768  0.30251  0.41916  1.0000
  H   H138      1.0  0.82488  0.31130  0.47971  1.0000
  N   N24       1.0  0.77929  0.26738  0.49718  1.0000
  O   O23       1.0  0.77303  0.28253  0.53502  1.0000
  O   O24       1.0  0.79228  0.26186  0.55114  1.0000
