data_image0
_chemical_formula_structural       C3NC3NC5NC5NC36H26C4H4CNCOCH3NCNCOCH3NC16H16NC2HN2C2HN
_chemical_formula_sum              "C82 N12 H54 O2"
_cell_length_a       34.3648
_cell_length_b       34.3647
_cell_length_c       14.6933
_cell_angle_alpha    90
_cell_angle_beta     90
_cell_angle_gamma    90.1689

_space_group_name_H-M_alt    "P 1"
_space_group_IT_number       1

loop_
  _space_group_symop_operation_xyz
  'x, y, z'

loop_
  _atom_site_type_symbol
  _atom_site_label
  _atom_site_symmetry_multiplicity
  _atom_site_fract_x
  _atom_site_fract_y
  _atom_site_fract_z
  _atom_site_occupancy
  C   C1        1.0  0.11286  0.08245  0.33283  1.0000
  C   C2        1.0  0.08431  0.11069  0.33190  1.0000
  C   C3        1.0  0.04797  0.09231  0.33309  1.0000
  N   N1        1.0  0.05607  0.05360  0.33436  1.0000
  C   C4        1.0  0.09488  0.04592  0.33394  1.0000
  C   C5        1.0  0.11499  0.00961  0.33434  1.0000
  C   C6        1.0  0.09615  0.97263  0.33476  1.0000
  N   N2        1.0  0.05749  0.96471  0.33569  1.0000
  C   C7        1.0  0.04996  0.92597  0.33449  1.0000
  C   C8        1.0  0.08630  0.90787  0.33310  1.0000
  C   C9        1.0  0.11463  0.93649  0.33304  1.0000
  C   C10       1.0  0.01318  0.90673  0.33468  1.0000
  C   C11       1.0  0.97664  0.92637  0.33503  1.0000
  N   N3        1.0  0.96853  0.96507  0.33344  1.0000
  C   C12       1.0  0.92973  0.97270  0.33374  1.0000
  C   C13       1.0  0.91178  0.93616  0.33631  1.0000
  C   C14       1.0  0.94035  0.90794  0.33659  1.0000
  C   C15       1.0  0.90963  0.00901  0.33258  1.0000
  C   C16       1.0  0.92850  0.04599  0.33205  1.0000
  N   N4        1.0  0.96716  0.05397  0.33210  1.0000
  C   C17       1.0  0.97468  0.09272  0.33176  1.0000
  C   C18       1.0  0.93831  0.11078  0.33172  1.0000
  C   C19       1.0  0.91001  0.08213  0.33124  1.0000
  C   C20       1.0  0.01144  0.11202  0.33215  1.0000
  C   C21       1.0  0.01156  0.15389  0.33317  1.0000
  C   C22       1.0  0.00395  0.17574  0.25359  1.0000
  C   C23       1.0  0.00350  0.21683  0.25566  1.0000
  C   C24       1.0  0.01097  0.23783  0.33697  1.0000
  C   C25       1.0  0.01021  0.27980  0.33988  1.0000
  C   C26       1.0  0.00599  0.36332  0.35567  1.0000
  C   C27       1.0  0.97888  0.34246  0.30211  1.0000
  C   C28       1.0  0.98116  0.30155  0.29395  1.0000
  C   C29       1.0  0.86778  0.00840  0.33365  1.0000
  C   C30       1.0  0.84609  0.00018  0.25411  1.0000
  C   C31       1.0  0.80500  0.99955  0.25575  1.0000
  C   C32       1.0  0.78387  0.00752  0.33654  1.0000
  C   C33       1.0  0.74191  0.00669  0.33888  1.0000
  C   C34       1.0  0.72026  0.97703  0.29446  1.0000
  C   C35       1.0  0.67934  0.97469  0.30206  1.0000
  C   C36       1.0  0.65837  0.00235  0.35349  1.0000
  C   C37       1.0  0.01306  0.86495  0.33130  1.0000
  C   C38       1.0  0.01481  0.78117  0.32284  1.0000
  C   C39       1.0  0.01709  0.80441  0.24313  1.0000
  C   C40       1.0  0.01620  0.84539  0.24709  1.0000
  C   C41       1.0  0.01713  0.73930  0.31798  1.0000
  C   C42       1.0  0.04366  0.72098  0.25801  1.0000
  C   C43       1.0  0.04557  0.68018  0.25015  1.0000
  C   C44       1.0  0.02113  0.65539  0.30204  1.0000
  C   C45       1.0  0.15680  0.01022  0.33093  1.0000
  C   C46       1.0  0.17638  0.01580  0.24739  1.0000
  C   C47       1.0  0.21737  0.01703  0.24358  1.0000
  C   C48       1.0  0.24062  0.01264  0.32276  1.0000
  C   C49       1.0  0.28251  0.01514  0.31824  1.0000
  C   C50       1.0  0.36643  0.01952  0.30270  1.0000
  C   C51       1.0  0.34179  0.04532  0.25458  1.0000
  C   C52       1.0  0.30098  0.04323  0.26227  1.0000
  H   H1        1.0  0.35339  0.06605  0.21234  1.0000
  H   H2        1.0  0.28477  0.06289  0.22638  1.0000
  H   H3        1.0  0.23016  0.02078  0.18132  1.0000
  H   H4        1.0  0.16084  0.01916  0.18847  1.0000
  H   H5        1.0  0.14205  0.08821  0.33218  1.0000
  H   H6        1.0  0.08977  0.13992  0.33010  1.0000
  H   H7        1.0  0.03639  0.03370  0.33537  1.0000
  H   H8        1.0  0.98821  0.98497  0.33102  1.0000
  H   H9        1.0  0.14389  0.93129  0.33151  1.0000
  H   H10       1.0  0.09179  0.87866  0.33195  1.0000
  H   H11       1.0  0.01811  0.86093  0.18780  1.0000
  H   H12       1.0  0.01908  0.79161  0.18044  1.0000
  H   H13       1.0  0.93496  0.87868  0.33819  1.0000
  H   H14       1.0  0.88260  0.93036  0.33777  1.0000
  H   H15       1.0  0.93274  0.13997  0.33189  1.0000
  H   H16       1.0  0.88075  0.08735  0.33082  1.0000
  H   H17       1.0  0.86017  0.99459  0.19414  1.0000
  H   H18       1.0  0.79056  0.99391  0.19631  1.0000
  H   H19       1.0  0.66510  0.95179  0.27224  1.0000
  H   H20       1.0  0.73433  0.95554  0.25941  1.0000
  H   H21       1.0  0.95998  0.28754  0.25747  1.0000
  H   H22       1.0  0.95639  0.35674  0.27106  1.0000
  H   H23       1.0  0.99822  0.23138  0.19621  1.0000
  H   H24       1.0  0.99856  0.16178  0.19334  1.0000
  H   H25       1.0  0.06232  0.73729  0.21926  1.0000
  H   H26       1.0  0.06514  0.66870  0.20500  1.0000
  C   C53       1.0  0.00115  0.40266  0.37403  1.0000
  C   C54       1.0  0.61901  0.99736  0.37158  1.0000
  C   C55       1.0  0.02292  0.61504  0.28818  1.0000
  C   C56       1.0  0.40677  0.02151  0.28874  1.0000
  H   H27       1.0  0.99025  0.40992  0.43437  1.0000
  H   H28       1.0  0.41611  0.03582  0.23394  1.0000
  H   H29       1.0  0.03641  0.60573  0.23229  1.0000
  H   H30       1.0  0.61173  0.98454  0.42982  1.0000
  C   C57       1.0  0.01030  0.46826  0.32444  1.0000
  N   N5        1.0  0.02475  0.53107  0.26268  1.0000
  C   C58       1.0  0.02549  0.49162  0.25361  1.0000
  O   O1        1.0  0.04293  0.47569  0.17879  1.0000
  C   C59       1.0  0.01722  0.47278  0.10189  1.0000
  H   H31       1.0  0.03336  0.45987  0.04567  1.0000
  H   H32       1.0  0.00698  0.50140  0.08019  1.0000
  H   H33       1.0  0.99227  0.45403  0.11676  1.0000
  N   N6        1.0  0.01172  0.42942  0.31779  1.0000
  C   C60       1.0  0.55349  0.00828  0.32390  1.0000
  N   N7        1.0  0.49079  0.02341  0.26296  1.0000
  C   C61       1.0  0.53024  0.02424  0.25398  1.0000
  O   O2        1.0  0.54628  0.04233  0.18003  1.0000
  C   C62       1.0  0.54919  0.01727  0.10201  1.0000
  H   H34       1.0  0.56219  0.03390  0.04657  1.0000
  H   H35       1.0  0.52056  0.00711  0.07972  1.0000
  H   H36       1.0  0.56786  0.99225  0.11584  1.0000
  N   N8        1.0  0.59233  0.00972  0.31734  1.0000
  C   C63       1.0  0.01866  0.21557  0.41629  1.0000
  C   C64       1.0  0.01883  0.17452  0.41463  1.0000
  C   C65       1.0  0.03763  0.30122  0.39206  1.0000
  C   C66       1.0  0.03546  0.34205  0.40037  1.0000
  C   C67       1.0  0.80596  0.01574  0.41588  1.0000
  C   C68       1.0  0.84700  0.01606  0.41468  1.0000
  C   C69       1.0  0.67955  0.03241  0.39673  1.0000
  C   C70       1.0  0.72042  0.03461  0.38905  1.0000
  C   C71       1.0  0.01030  0.84218  0.41120  1.0000
  C   C72       1.0  0.01098  0.80111  0.40689  1.0000
  C   C73       1.0  0.99504  0.67350  0.36344  1.0000
  C   C74       1.0  0.99322  0.71449  0.37140  1.0000
  C   C75       1.0  0.17960  0.00536  0.41022  1.0000
  C   C76       1.0  0.22067  0.00639  0.40604  1.0000
  C   C77       1.0  0.30719  0.98981  0.36791  1.0000
  C   C78       1.0  0.34819  0.99183  0.36018  1.0000
  H   H37       1.0  0.36462  0.97219  0.39554  1.0000
  H   H38       1.0  0.29542  0.96856  0.40826  1.0000
  H   H39       1.0  0.23594  0.00364  0.46545  1.0000
  H   H40       1.0  0.16636  0.00135  0.47192  1.0000
  H   H41       1.0  0.00816  0.85543  0.47338  1.0000
  H   H42       1.0  0.00987  0.78584  0.46661  1.0000
  H   H43       1.0  0.86172  0.02188  0.47373  1.0000
  H   H44       1.0  0.79229  0.02080  0.47657  1.0000
  H   H45       1.0  0.73449  0.05681  0.42188  1.0000
  H   H46       1.0  0.66546  0.05249  0.43621  1.0000
  H   H47       1.0  0.02410  0.15971  0.47379  1.0000
  H   H48       1.0  0.02328  0.22909  0.47738  1.0000
  H   H49       1.0  0.05519  0.35605  0.44119  1.0000
  H   H50       1.0  0.05946  0.28712  0.42588  1.0000
  H   H51       1.0  0.97312  0.72616  0.41482  1.0000
  H   H52       1.0  0.97645  0.65696  0.40184  1.0000
  N   N9        1.0  0.99480  0.48723  0.39747  1.0000
  C   C79       1.0  0.99356  0.52670  0.40537  1.0000
  C   C80       1.0  0.00927  0.55012  0.33553  1.0000
  H   H53       1.0  0.98158  0.53890  0.46225  1.0000
  N   N10       1.0  0.00884  0.58905  0.34253  1.0000
  N   N11       1.0  0.53442  0.99202  0.39601  1.0000
  C   C81       1.0  0.49494  0.99073  0.40384  1.0000
  C   C82       1.0  0.47163  0.00719  0.33492  1.0000
  H   H54       1.0  0.48267  0.97814  0.45997  1.0000
  N   N12       1.0  0.43270  0.00667  0.34191  1.0000
