data_image0
_chemical_formula_structural       HC3N2HCHC3HCH2CHC3HCH3CHC3HCH3CHC3HCH3CHC3HCH3CHC3HCH3CHC3H3NC6H3N3C6H3N3C6H3N3C3HCH3CHC4H3C3HCH3CHC3HCH3CHC3HCH3CHC3HCH3CH
_chemical_formula_sum              "H72 C84 N12"
_cell_length_a       34.8831
_cell_length_b       34.8831
_cell_length_c       14.7145
_cell_angle_alpha    90
_cell_angle_beta     90
_cell_angle_gamma    120

_space_group_name_H-M_alt    "P 1"
_space_group_IT_number       1

loop_
  _space_group_symop_operation_xyz
  'x, y, z'

loop_
  _atom_site_type_symbol
  _atom_site_label
  _atom_site_symmetry_multiplicity
  _atom_site_fract_x
  _atom_site_fract_y
  _atom_site_fract_z
  _atom_site_occupancy
  H   H1        1.0  0.24327  0.06942  0.17339  1.0000
  C   C1        1.0  0.98739  0.03237  0.34650  1.0000
  C   C2        1.0  0.03419  0.05362  0.34583  1.0000
  C   C3        1.0  0.05694  0.02941  0.34658  1.0000
  N   N1        1.0  0.96849  0.05788  0.34428  1.0000
  N   N2        1.0  0.10135  0.04830  0.34435  1.0000
  H   H2        1.0  0.89194  0.07328  0.50038  1.0000
  C   C4        1.0  0.93108  0.05171  0.37462  1.0000
  H   H3        1.0  0.91162  0.02400  0.40864  1.0000
  C   C5        1.0  0.27160  0.13238  0.35394  1.0000
  C   C6        1.0  0.24296  0.11110  0.27825  1.0000
  C   C7        1.0  0.19681  0.09503  0.28653  1.0000
  H   H4        1.0  0.17663  0.08025  0.23163  1.0000
  C   C8        1.0  0.25849  0.10474  0.18800  1.0000
  H   H5        1.0  0.29427  0.11910  0.18360  1.0000
  H   H6        1.0  0.24881  0.12017  0.13507  1.0000
  C   C9        1.0  0.31629  0.14386  0.35058  1.0000
  H   H7        1.0  0.32277  0.11938  0.34317  1.0000
  C   C10       1.0  0.88442  0.14406  0.35389  1.0000
  C   C11       1.0  0.90570  0.13670  0.27819  1.0000
  C   C12       1.0  0.92175  0.10660  0.28646  1.0000
  H   H8        1.0  0.93655  0.10122  0.23156  1.0000
  C   C13       1.0  0.91207  0.15861  0.18796  1.0000
  H   H9        1.0  0.89772  0.18003  0.18359  1.0000
  H   H10       1.0  0.89663  0.13350  0.13502  1.0000
  H   H11       1.0  0.94739  0.17869  0.17335  1.0000
  C   C14       1.0  0.87294  0.17726  0.35059  1.0000
  H   H12       1.0  0.89744  0.20823  0.34326  1.0000
  C   C15       1.0  0.87274  0.74519  0.35395  1.0000
  C   C16       1.0  0.88010  0.77383  0.27825  1.0000
  C   C17       1.0  0.91019  0.81998  0.28655  1.0000
  H   H13       1.0  0.91558  0.84017  0.23165  1.0000
  C   C18       1.0  0.85821  0.75830  0.18800  1.0000
  H   H14       1.0  0.83681  0.72253  0.18360  1.0000
  H   H15       1.0  0.88334  0.76800  0.13508  1.0000
  H   H16       1.0  0.83812  0.77353  0.17339  1.0000
  C   C19       1.0  0.83954  0.70050  0.35059  1.0000
  H   H17       1.0  0.80858  0.69404  0.34317  1.0000
  C   C20       1.0  0.62990  0.16948  0.32066  1.0000
  C   C21       1.0  0.60640  0.17693  0.25110  1.0000
  C   C22       1.0  0.56762  0.17922  0.26822  1.0000
  H   H18       1.0  0.62003  0.18469  0.18735  1.0000
  C   C23       1.0  0.54855  0.19226  0.19134  1.0000
  H   H19       1.0  0.56589  0.19642  0.12713  1.0000
  H   H20       1.0  0.55008  0.22362  0.20661  1.0000
  H   H21       1.0  0.51410  0.16673  0.18079  1.0000
  C   C24       1.0  0.67370  0.17980  0.30427  1.0000
  H   H22       1.0  0.68783  0.19640  0.24726  1.0000
  C   C25       1.0  0.84730  0.46523  0.32057  1.0000
  C   C26       1.0  0.83980  0.43423  0.25112  1.0000
  C   C27       1.0  0.83758  0.39319  0.26825  1.0000
  H   H23       1.0  0.83213  0.44013  0.18730  1.0000
  C   C28       1.0  0.82460  0.36107  0.19142  1.0000
  H   H24       1.0  0.82040  0.37422  0.12719  1.0000
  H   H25       1.0  0.79328  0.33121  0.20673  1.0000
  H   H26       1.0  0.85018  0.35222  0.18090  1.0000
  C   C29       1.0  0.83703  0.49873  0.30420  1.0000
  H   H27       1.0  0.82046  0.49630  0.24716  1.0000
  C   C30       1.0  0.55149  0.38696  0.32064  1.0000
  C   C31       1.0  0.58245  0.41046  0.25110  1.0000
  C   C32       1.0  0.62352  0.44923  0.26822  1.0000
  H   H28       1.0  0.57656  0.39683  0.18734  1.0000
  C   C33       1.0  0.65563  0.46829  0.19135  1.0000
  H   H29       1.0  0.64244  0.45095  0.12713  1.0000
  H   H30       1.0  0.68545  0.46674  0.20661  1.0000
  H   H31       1.0  0.66456  0.50274  0.18081  1.0000
  C   C34       1.0  0.51800  0.34317  0.30424  1.0000
  H   H32       1.0  0.52044  0.32905  0.24718  1.0000
  C   C35       1.0  0.03139  0.98260  0.34588  1.0000
  C   C36       1.0  0.98442  0.95985  0.34660  1.0000
  C   C37       1.0  0.96317  0.98540  0.34585  1.0000
  H   H33       1.0  0.04737  0.96472  0.34419  1.0000
  H   H34       1.0  0.92932  0.96942  0.34413  1.0000
  H   H35       1.0  0.05207  0.08747  0.34411  1.0000
  N   N3        1.0  0.95891  0.91544  0.34437  1.0000
  C   C38       1.0  0.46344  0.20181  0.35280  1.0000
  C   C39       1.0  0.41660  0.17961  0.35076  1.0000
  C   C40       1.0  0.39306  0.20316  0.35581  1.0000
  C   C41       1.0  0.41788  0.25008  0.36103  1.0000
  C   C42       1.0  0.46465  0.27328  0.35785  1.0000
  C   C43       1.0  0.48653  0.24856  0.35449  1.0000
  H   H36       1.0  0.40176  0.26779  0.36519  1.0000
  H   H37       1.0  0.52043  0.26529  0.35222  1.0000
  H   H38       1.0  0.39967  0.14586  0.34652  1.0000
  N   N4        1.0  0.48628  0.18042  0.34246  1.0000
  N   N5        1.0  0.34863  0.18410  0.35650  1.0000
  N   N6        1.0  0.48985  0.31741  0.36433  1.0000
  C   C44       1.0  0.81507  0.26651  0.35301  1.0000
  C   C45       1.0  0.83723  0.24185  0.35086  1.0000
  C   C46       1.0  0.81366  0.19476  0.35580  1.0000
  C   C47       1.0  0.76674  0.17268  0.36099  1.0000
  C   C48       1.0  0.74356  0.19627  0.35788  1.0000
  C   C49       1.0  0.76831  0.24288  0.35463  1.0000
  H   H39       1.0  0.74902  0.13886  0.36511  1.0000
  H   H40       1.0  0.75160  0.26006  0.35237  1.0000
  H   H41       1.0  0.87098  0.25865  0.34658  1.0000
  N   N7        1.0  0.83644  0.31073  0.34264  1.0000
  N   N8        1.0  0.83271  0.16937  0.35646  1.0000
  N   N9        1.0  0.69944  0.17736  0.36432  1.0000
  C   C50       1.0  0.75030  0.55337  0.35281  1.0000
  C   C51       1.0  0.77495  0.60020  0.35077  1.0000
  C   C52       1.0  0.82204  0.62373  0.35580  1.0000
  C   C53       1.0  0.84413  0.59890  0.36100  1.0000
  C   C54       1.0  0.82055  0.55212  0.35782  1.0000
  C   C55       1.0  0.77394  0.53026  0.35448  1.0000
  H   H42       1.0  0.87795  0.61500  0.36516  1.0000
  H   H43       1.0  0.75677  0.49636  0.35220  1.0000
  H   H44       1.0  0.75814  0.61714  0.34655  1.0000
  N   N10       1.0  0.70607  0.53054  0.34248  1.0000
  N   N11       1.0  0.84743  0.66816  0.35650  1.0000
  N   N12       1.0  0.83945  0.52691  0.36427  1.0000
  C   C56       1.0  0.17771  0.09946  0.36753  1.0000
  C   C57       1.0  0.20653  0.12115  0.44115  1.0000
  C   C58       1.0  0.25271  0.13701  0.43649  1.0000
  H   H45       1.0  0.19331  0.12485  0.50044  1.0000
  C   C59       1.0  0.28009  0.15763  0.51927  1.0000
  H   H46       1.0  0.26057  0.15748  0.57742  1.0000
  H   H47       1.0  0.30479  0.19201  0.50519  1.0000
  H   H48       1.0  0.29693  0.13965  0.53909  1.0000
  C   C60       1.0  0.13259  0.08571  0.37470  1.0000
  H   H49       1.0  0.12433  0.10516  0.40872  1.0000
  C   C61       1.0  0.91733  0.08307  0.36745  1.0000
  C   C62       1.0  0.89563  0.09019  0.44107  1.0000
  C   C63       1.0  0.87978  0.12052  0.43643  1.0000
  C   C64       1.0  0.85918  0.12729  0.51923  1.0000
  H   H50       1.0  0.85931  0.10790  0.57736  1.0000
  H   H51       1.0  0.82480  0.11763  0.50516  1.0000
  H   H52       1.0  0.87717  0.16210  0.53907  1.0000
  C   C65       1.0  0.93371  0.83909  0.36755  1.0000
  C   C66       1.0  0.92658  0.81026  0.44117  1.0000
  C   C67       1.0  0.89626  0.76408  0.43650  1.0000
  H   H53       1.0  0.94350  0.82348  0.50047  1.0000
  C   C68       1.0  0.88950  0.73670  0.51928  1.0000
  H   H54       1.0  0.90887  0.75621  0.57743  1.0000
  H   H55       1.0  0.89918  0.71200  0.50519  1.0000
  H   H56       1.0  0.85468  0.71986  0.53909  1.0000
  C   C69       1.0  0.96508  0.88420  0.37473  1.0000
  H   H57       1.0  0.99278  0.89246  0.40878  1.0000
  C   C70       1.0  0.55022  0.17222  0.35854  1.0000
  C   C71       1.0  0.57132  0.16070  0.42808  1.0000
  C   C72       1.0  0.61069  0.15986  0.40816  1.0000
  H   H58       1.0  0.62720  0.15484  0.46022  1.0000
  C   C73       1.0  0.55584  0.15180  0.52434  1.0000
  H   H59       1.0  0.52393  0.14982  0.53441  1.0000
  H   H60       1.0  0.58011  0.17795  0.56814  1.0000
  H   H61       1.0  0.55212  0.12020  0.54618  1.0000
  C   C74       1.0  0.52241  0.18867  0.38348  1.0000
  H   H62       1.0  0.53475  0.21272  0.42983  1.0000
  C   C75       1.0  0.84462  0.38283  0.35854  1.0000
  C   C76       1.0  0.85612  0.41548  0.42807  1.0000
  C   C77       1.0  0.85698  0.45569  0.40808  1.0000
  H   H63       1.0  0.86197  0.47722  0.46013  1.0000
  C   C78       1.0  0.86509  0.40898  0.52435  1.0000
  H   H64       1.0  0.86711  0.37908  0.53453  1.0000
  H   H65       1.0  0.83895  0.40710  0.56818  1.0000
  H   H66       1.0  0.89669  0.43690  0.54609  1.0000
  C   C79       1.0  0.82827  0.33862  0.38384  1.0000
  H   H67       1.0  0.80420  0.32695  0.43013  1.0000
  C   C80       1.0  0.63392  0.46661  0.35855  1.0000
  C   C81       1.0  0.60129  0.44551  0.42809  1.0000
  C   C82       1.0  0.56108  0.40616  0.40816  1.0000
  H   H68       1.0  0.53954  0.38964  0.46020  1.0000
  C   C83       1.0  0.60789  0.46098  0.52435  1.0000
  H   H69       1.0  0.63782  0.49288  0.53444  1.0000
  H   H70       1.0  0.60976  0.43670  0.56814  1.0000
  H   H71       1.0  0.58001  0.46472  0.54621  1.0000
  C   C84       1.0  0.67819  0.49441  0.38349  1.0000
  H   H72       1.0  0.68989  0.48206  0.42983  1.0000
