data_image0
_chemical_formula_structural       C4OC4OH4N2C4OC4OH4N2C4OC4OH4N2C2H2C3H2CHC2H2C3H2CHC2H2C3H2CHC2H2C3H2CHC2H2C3H2CHC2H2C3H2CHC2HC2HN2C2HC2HN2C2HC2HN2C7H2N2O4CHC7H2N2O4CHC7H2N2O4CHC7H2N2O4CHC7H2N2O4CHC7H2N2O4CH
_chemical_formula_sum              "C120 O30 H66 N24"
_cell_length_a       39.0231
_cell_length_b       39.0231
_cell_length_c       14.9463
_cell_angle_alpha    90
_cell_angle_beta     90
_cell_angle_gamma    120

_space_group_name_H-M_alt    "P 1"
_space_group_IT_number       1

loop_
  _space_group_symop_operation_xyz
  'x, y, z'

loop_
  _atom_site_type_symbol
  _atom_site_label
  _atom_site_symmetry_multiplicity
  _atom_site_fract_x
  _atom_site_fract_y
  _atom_site_fract_z
  _atom_site_occupancy
  C   C1        1.0  0.98099  0.49040  0.34301  1.0000
  C   C2        1.0  0.89590  0.44592  0.34186  1.0000
  C   C3        1.0  0.91756  0.42605  0.33455  1.0000
  C   C4        1.0  0.95937  0.44841  0.33254  1.0000
  O   O1        1.0  0.85546  0.42473  0.34378  1.0000
  C   C5        1.0  0.02431  0.51306  0.34334  1.0000
  C   C6        1.0  0.04596  0.55507  0.33335  1.0000
  C   C7        1.0  0.08776  0.57743  0.33607  1.0000
  C   C8        1.0  0.10939  0.55753  0.34372  1.0000
  O   O2        1.0  0.14983  0.57872  0.34637  1.0000
  H   H1        1.0  0.84668  0.42191  0.28117  1.0000
  H   H2        1.0  0.15882  0.58171  0.28390  1.0000
  H   H3        1.0  0.97373  0.43303  0.32208  1.0000
  H   H4        1.0  0.03163  0.57047  0.32286  1.0000
  N   N1        1.0  0.10906  0.61668  0.33380  1.0000
  N   N2        1.0  0.89628  0.38679  0.33171  1.0000
  C   C9        1.0  0.51406  0.49153  0.34312  1.0000
  C   C10       1.0  0.55854  0.45091  0.34222  1.0000
  C   C11       1.0  0.57841  0.49244  0.33481  1.0000
  C   C12       1.0  0.55605  0.51189  0.33268  1.0000
  O   O3        1.0  0.57973  0.43167  0.34425  1.0000
  C   C13       1.0  0.49140  0.51218  0.34330  1.0000
  C   C14       1.0  0.44938  0.49181  0.33332  1.0000
  C   C15       1.0  0.42702  0.51124  0.33590  1.0000
  C   C16       1.0  0.44690  0.55277  0.34338  1.0000
  O   O4        1.0  0.42570  0.57201  0.34589  1.0000
  H   H5        1.0  0.58254  0.42567  0.28168  1.0000
  H   H6        1.0  0.42270  0.57796  0.28339  1.0000
  H   H7        1.0  0.57144  0.54163  0.32214  1.0000
  H   H8        1.0  0.43399  0.46206  0.32294  1.0000
  N   N3        1.0  0.38776  0.49327  0.33365  1.0000
  N   N4        1.0  0.61767  0.51041  0.33194  1.0000
  C   C17       1.0  0.51300  0.02345  0.34330  1.0000
  C   C18       1.0  0.55361  0.10854  0.34342  1.0000
  C   C19       1.0  0.51208  0.08690  0.33599  1.0000
  C   C20       1.0  0.49263  0.04510  0.33338  1.0000
  O   O5        1.0  0.57286  0.14898  0.34593  1.0000
  C   C21       1.0  0.49234  0.98014  0.34306  1.0000
  C   C22       1.0  0.51270  0.95851  0.33249  1.0000
  C   C23       1.0  0.49325  0.91670  0.33459  1.0000
  C   C24       1.0  0.45173  0.89505  0.34211  1.0000
  O   O6        1.0  0.43248  0.85461  0.34415  1.0000
  H   H9        1.0  0.57881  0.15793  0.28343  1.0000
  H   H10       1.0  0.42645  0.84579  0.28158  1.0000
  H   H11       1.0  0.46289  0.03076  0.32297  1.0000
  H   H12       1.0  0.54244  0.97287  0.32193  1.0000
  N   N5        1.0  0.51123  0.89542  0.33173  1.0000
  N   N6        1.0  0.49412  0.10819  0.33370  1.0000
  C   C25       1.0  0.26661  0.45564  0.26859  1.0000
  C   C26       1.0  0.30279  0.45593  0.26492  1.0000
  H   H13       1.0  0.25485  0.45917  0.21045  1.0000
  H   H14       1.0  0.31630  0.45956  0.20411  1.0000
  C   C27       1.0  0.14276  0.46181  0.35825  1.0000
  C   C28       1.0  0.14399  0.43104  0.31111  1.0000
  C   C29       1.0  0.17861  0.42830  0.30954  1.0000
  H   H15       1.0  0.11986  0.41072  0.27571  1.0000
  H   H16       1.0  0.17839  0.40573  0.27412  1.0000
  C   C30       1.0  0.10908  0.46552  0.35506  1.0000
  H   H17       1.0  0.08275  0.44195  0.34333  1.0000
  C   C31       1.0  0.54848  0.81181  0.26862  1.0000
  C   C32       1.0  0.54814  0.84767  0.26518  1.0000
  H   H18       1.0  0.54473  0.79646  0.21047  1.0000
  H   H19       1.0  0.54432  0.85752  0.20451  1.0000
  C   C33       1.0  0.54263  0.68190  0.35773  1.0000
  C   C34       1.0  0.57332  0.71388  0.31041  1.0000
  C   C35       1.0  0.57608  0.75125  0.30898  1.0000
  H   H20       1.0  0.59360  0.71006  0.27486  1.0000
  H   H21       1.0  0.59860  0.77359  0.27345  1.0000
  C   C36       1.0  0.53889  0.64450  0.35441  1.0000
  H   H22       1.0  0.56251  0.64176  0.34323  1.0000
  C   C37       1.0  0.19258  0.73782  0.26864  1.0000
  C   C38       1.0  0.15668  0.70165  0.26504  1.0000
  H   H23       1.0  0.20785  0.74958  0.21047  1.0000
  H   H24       1.0  0.14676  0.68814  0.20424  1.0000
  C   C39       1.0  0.32265  0.86166  0.35800  1.0000
  C   C40       1.0  0.29064  0.86043  0.31097  1.0000
  C   C41       1.0  0.25327  0.82582  0.30948  1.0000
  H   H25       1.0  0.29443  0.88456  0.27558  1.0000
  H   H26       1.0  0.23090  0.82603  0.27414  1.0000
  C   C42       1.0  0.36004  0.89534  0.35474  1.0000
  H   H27       1.0  0.36279  0.92169  0.34336  1.0000
  C   C43       1.0  0.73849  0.54764  0.26863  1.0000
  C   C44       1.0  0.70230  0.54733  0.26531  1.0000
  H   H28       1.0  0.75008  0.54392  0.21043  1.0000
  H   H29       1.0  0.68864  0.54356  0.20465  1.0000
  C   C45       1.0  0.86252  0.54165  0.35734  1.0000
  C   C46       1.0  0.86125  0.57237  0.31012  1.0000
  C   C47       1.0  0.82665  0.57515  0.30881  1.0000
  H   H30       1.0  0.88534  0.59265  0.27458  1.0000
  H   H31       1.0  0.82683  0.59769  0.27335  1.0000
  C   C48       1.0  0.89617  0.53789  0.35396  1.0000
  H   H32       1.0  0.92254  0.56153  0.34299  1.0000
  C   C49       1.0  0.45658  0.19173  0.26860  1.0000
  C   C50       1.0  0.45684  0.15583  0.26506  1.0000
  H   H33       1.0  0.46014  0.20701  0.21042  1.0000
  H   H34       1.0  0.46048  0.14592  0.20430  1.0000
  C   C51       1.0  0.46281  0.32182  0.35779  1.0000
  C   C52       1.0  0.43204  0.28982  0.31070  1.0000
  C   C53       1.0  0.42927  0.25245  0.30925  1.0000
  H   H35       1.0  0.41174  0.29363  0.27523  1.0000
  H   H36       1.0  0.40670  0.23008  0.27386  1.0000
  C   C54       1.0  0.46656  0.35923  0.35449  1.0000
  H   H37       1.0  0.44294  0.36196  0.34322  1.0000
  C   C55       1.0  0.81268  0.26594  0.26857  1.0000
  C   C56       1.0  0.84855  0.30214  0.26516  1.0000
  H   H38       1.0  0.79734  0.25433  0.21041  1.0000
  H   H39       1.0  0.85841  0.31579  0.20449  1.0000
  C   C57       1.0  0.68273  0.14191  0.35765  1.0000
  C   C58       1.0  0.71471  0.14318  0.31036  1.0000
  C   C59       1.0  0.75208  0.17778  0.30893  1.0000
  H   H40       1.0  0.71089  0.11907  0.27484  1.0000
  H   H41       1.0  0.77443  0.17760  0.27343  1.0000
  C   C60       1.0  0.64533  0.10825  0.35436  1.0000
  H   H42       1.0  0.64258  0.08189  0.34311  1.0000
  C   C61       1.0  0.95748  0.50877  0.35356  1.0000
  C   C62       1.0  0.91565  0.48738  0.35104  1.0000
  H   H43       1.0  0.97040  0.53836  0.36503  1.0000
  C   C63       1.0  0.08961  0.51605  0.35232  1.0000
  C   C64       1.0  0.04778  0.49466  0.35408  1.0000
  H   H44       1.0  0.03482  0.46504  0.36523  1.0000
  N   N7        1.0  0.11258  0.50001  0.35800  1.0000
  N   N8        1.0  0.89266  0.50340  0.35661  1.0000
  C   C65       1.0  0.49570  0.44966  0.35381  1.0000
  C   C66       1.0  0.51708  0.42922  0.35140  1.0000
  H   H45       1.0  0.46610  0.43299  0.36529  1.0000
  C   C67       1.0  0.48838  0.57449  0.35193  1.0000
  C   C68       1.0  0.50979  0.55406  0.35384  1.0000
  H   H46       1.0  0.53941  0.57074  0.36492  1.0000
  N   N9        1.0  0.50441  0.61350  0.35739  1.0000
  N   N10       1.0  0.50106  0.39021  0.35711  1.0000
  C   C69       1.0  0.55488  0.04694  0.35387  1.0000
  C   C70       1.0  0.57532  0.08877  0.35195  1.0000
  H   H47       1.0  0.57156  0.03398  0.36488  1.0000
  C   C71       1.0  0.43003  0.91481  0.35140  1.0000
  C   C72       1.0  0.45047  0.95663  0.35381  1.0000
  H   H48       1.0  0.43383  0.96957  0.36544  1.0000
  N   N11       1.0  0.39103  0.89182  0.35725  1.0000
  N   N12       1.0  0.61433  0.11174  0.35739  1.0000
  C   C73       1.0  0.32105  0.45305  0.34401  1.0000
  C   C74       1.0  0.30227  0.44934  0.42768  1.0000
  C   C75       1.0  0.26581  0.44902  0.43013  1.0000
  C   C76       1.0  0.24790  0.45280  0.35139  1.0000
  C   C77       1.0  0.21307  0.45595  0.35585  1.0000
  C   C78       1.0  0.21232  0.48697  0.40402  1.0000
  C   C79       1.0  0.17726  0.48934  0.40486  1.0000
  H   H49       1.0  0.17740  0.51211  0.43926  1.0000
  H   H50       1.0  0.25269  0.44689  0.49079  1.0000
  N   N13       1.0  0.24702  0.51613  0.44746  1.0000
  N   N14       1.0  0.32088  0.44748  0.50750  1.0000
  O   O7        1.0  0.24156  0.51729  0.53000  1.0000
  O   O8        1.0  0.29944  0.41598  0.54964  1.0000
  O   O9        1.0  0.25884  0.54994  0.41499  1.0000
  O   O10       1.0  0.32892  0.47629  0.55802  1.0000
  C   C80       1.0  0.35856  0.45781  0.33956  1.0000
  H   H51       1.0  0.36271  0.43518  0.35244  1.0000
  C   C81       1.0  0.55133  0.86892  0.34432  1.0000
  C   C82       1.0  0.55541  0.85396  0.42781  1.0000
  C   C83       1.0  0.55573  0.81781  0.43004  1.0000
  C   C84       1.0  0.55164  0.79604  0.35126  1.0000
  C   C85       1.0  0.54850  0.75806  0.35558  1.0000
  C   C86       1.0  0.51754  0.72631  0.40393  1.0000
  C   C87       1.0  0.51516  0.68887  0.40466  1.0000
  H   H52       1.0  0.49244  0.66625  0.43915  1.0000
  H   H53       1.0  0.55807  0.80687  0.49058  1.0000
  N   N15       1.0  0.48846  0.73188  0.44767  1.0000
  N   N16       1.0  0.55758  0.87449  0.50774  1.0000
  O   O11       1.0  0.48744  0.72529  0.53021  1.0000
  O   O12       1.0  0.58923  0.88459  0.54921  1.0000
  O   O13       1.0  0.45461  0.70989  0.41547  1.0000
  O   O14       1.0  0.52896  0.85375  0.55879  1.0000
  C   C88       1.0  0.54662  0.90173  0.34022  1.0000
  H   H54       1.0  0.56872  0.92819  0.35745  1.0000
  C   C89       1.0  0.13559  0.68339  0.34418  1.0000
  C   C90       1.0  0.15070  0.70217  0.42783  1.0000
  C   C91       1.0  0.18685  0.73863  0.43021  1.0000
  C   C92       1.0  0.20850  0.75653  0.35142  1.0000
  C   C93       1.0  0.24649  0.79136  0.35579  1.0000
  C   C94       1.0  0.27828  0.79212  0.40387  1.0000
  C   C95       1.0  0.31572  0.82717  0.40461  1.0000
  H   H55       1.0  0.33836  0.82704  0.43893  1.0000
  H   H56       1.0  0.19787  0.75175  0.49084  1.0000
  N   N17       1.0  0.27276  0.75742  0.44731  1.0000
  N   N18       1.0  0.13026  0.68357  0.50769  1.0000
  O   O15       1.0  0.27941  0.76290  0.52984  1.0000
  O   O16       1.0  0.12025  0.70502  0.54990  1.0000
  O   O17       1.0  0.29473  0.74560  0.41479  1.0000
  O   O18       1.0  0.15106  0.67552  0.55813  1.0000
  C   C96       1.0  0.10282  0.64589  0.33978  1.0000
  H   H57       1.0  0.07606  0.64175  0.35275  1.0000
  C   C97       1.0  0.68427  0.55049  0.34452  1.0000
  C   C98       1.0  0.70333  0.55452  0.42797  1.0000
  C   C99       1.0  0.73978  0.55481  0.43007  1.0000
  C   C100      1.0  0.75744  0.55075  0.35122  1.0000
  C   C101      1.0  0.79226  0.54757  0.35542  1.0000
  C   C102      1.0  0.79305  0.51659  0.40366  1.0000
  C   C103      1.0  0.82809  0.51418  0.40426  1.0000
  H   H58       1.0  0.82799  0.49144  0.43869  1.0000
  H   H59       1.0  0.75307  0.55711  0.49059  1.0000
  N   N19       1.0  0.75840  0.48750  0.44742  1.0000
  N   N20       1.0  0.68498  0.55664  0.50797  1.0000
  O   O19       1.0  0.76399  0.48645  0.52993  1.0000
  O   O20       1.0  0.70656  0.58827  0.54952  1.0000
  O   O21       1.0  0.74650  0.45365  0.41514  1.0000
  O   O22       1.0  0.67709  0.52799  0.55889  1.0000
  C   C104      1.0  0.64676  0.54580  0.34051  1.0000
  H   H60       1.0  0.64241  0.56790  0.35784  1.0000
  C   C105      1.0  0.45393  0.13472  0.34423  1.0000
  C   C106      1.0  0.45020  0.14982  0.42783  1.0000
  C   C107      1.0  0.44991  0.18598  0.43015  1.0000
  C   C108      1.0  0.45372  0.20764  0.35134  1.0000
  C   C109      1.0  0.45691  0.24564  0.35566  1.0000
  C   C110      1.0  0.48793  0.27742  0.40379  1.0000
  C   C111      1.0  0.49033  0.31487  0.40449  1.0000
  H   H61       1.0  0.51310  0.33750  0.43886  1.0000
  H   H62       1.0  0.44777  0.19700  0.49076  1.0000
  N   N21       1.0  0.51707  0.27188  0.44734  1.0000
  N   N22       1.0  0.44831  0.12938  0.50772  1.0000
  O   O23       1.0  0.51820  0.27852  0.52988  1.0000
  O   O24       1.0  0.41681  0.11937  0.54980  1.0000
  O   O25       1.0  0.55088  0.29383  0.41491  1.0000
  O   O26       1.0  0.47711  0.15016  0.55825  1.0000
  C   C112      1.0  0.45867  0.10195  0.33992  1.0000
  H   H63       1.0  0.43608  0.07520  0.35318  1.0000
  C   C113      1.0  0.86978  0.32019  0.34432  1.0000
  C   C114      1.0  0.85480  0.30115  0.42780  1.0000
  C   C115      1.0  0.81865  0.26468  0.43000  1.0000
  C   C116      1.0  0.79690  0.24701  0.35120  1.0000
  C   C117      1.0  0.75890  0.21218  0.35550  1.0000
  C   C118      1.0  0.72715  0.21140  0.40381  1.0000
  C   C119      1.0  0.68971  0.17636  0.40454  1.0000
  H   H64       1.0  0.66709  0.17647  0.43901  1.0000
  H   H65       1.0  0.80769  0.25141  0.49054  1.0000
  N   N23       1.0  0.73273  0.24606  0.44752  1.0000
  N   N24       1.0  0.87531  0.31952  0.50775  1.0000
  O   O27       1.0  0.72613  0.24051  0.53006  1.0000
  O   O28       1.0  0.88540  0.29796  0.54926  1.0000
  O   O29       1.0  0.71076  0.25794  0.41527  1.0000
  O   O30       1.0  0.85457  0.32740  0.55875  1.0000
  C   C120      1.0  0.90259  0.35771  0.34023  1.0000
  H   H66       1.0  0.92905  0.36207  0.35749  1.0000
