data_image0
_chemical_formula_structural       H2C3NC3NC5NC4NC35H23C21H18C16H16NCHNCHNC2HNCHNCHNC2HC18H17C3NC3NC2NC5NC34H24C3NC3NC5NC5NC36H26C2NC2ONH2C2NC2ONH2CNC2ONH2C2NC2ONH2C2NC2ONH2CNC2ONH2
_chemical_formula_sum              "H144 C234 N30 O6"
_cell_length_a       58.5566
_cell_length_b       58.5566
_cell_length_c       14.9754
_cell_angle_alpha    89.773
_cell_angle_beta     90.227
_cell_angle_gamma    120

_space_group_name_H-M_alt    "P 1"
_space_group_IT_number       1

loop_
  _space_group_symop_operation_xyz
  'x, y, z'

loop_
  _atom_site_type_symbol
  _atom_site_label
  _atom_site_symmetry_multiplicity
  _atom_site_fract_x
  _atom_site_fract_y
  _atom_site_fract_z
  _atom_site_occupancy
  H   H1        1.0  0.00826  0.46563  0.33983  1.0000
  H   H2        1.0  0.00871  0.63839  0.33774  1.0000
  C   C1        1.0  0.01969  0.48571  0.33786  1.0000
  C   C2        1.0  0.04692  0.49926  0.33673  1.0000
  C   C3        1.0  0.05560  0.52624  0.33370  1.0000
  N   N1        1.0  0.03339  0.52803  0.33300  1.0000
  C   C4        1.0  0.01111  0.50410  0.33530  1.0000
  C   C5        1.0  0.98429  0.49778  0.33478  1.0000
  C   C6        1.0  0.97566  0.51654  0.33287  1.0000
  N   N2        1.0  0.99062  0.54312  0.33314  1.0000
  C   C7        1.0  0.97576  0.55485  0.33120  1.0000
  C   C8        1.0  0.94954  0.53444  0.32948  1.0000
  C   C9        1.0  0.94947  0.51085  0.33078  1.0000
  C   C10       1.0  0.98452  0.58227  0.33149  1.0000
  C   C11       1.0  0.01138  0.60267  0.33346  1.0000
  N   N3        1.0  0.03359  0.60089  0.33290  1.0000
  C   C12       1.0  0.05586  0.62481  0.33526  1.0000
  C   C13       1.0  0.04729  0.64320  0.33770  1.0000
  C   C14       1.0  0.02006  0.62965  0.33645  1.0000
  C   C15       1.0  0.08269  0.63113  0.33486  1.0000
  N   N4        1.0  0.07636  0.58580  0.33337  1.0000
  C   C16       1.0  0.09121  0.57408  0.33146  1.0000
  C   C17       1.0  0.11744  0.59449  0.32970  1.0000
  C   C18       1.0  0.11750  0.61809  0.33096  1.0000
  C   C19       1.0  0.08246  0.54666  0.33183  1.0000
  C   C20       1.0  0.10222  0.53925  0.33052  1.0000
  C   C21       1.0  0.11116  0.53477  0.24862  1.0000
  C   C22       1.0  0.13203  0.52938  0.24688  1.0000
  C   C23       1.0  0.14459  0.52835  0.32665  1.0000
  C   C24       1.0  0.16684  0.52445  0.32450  1.0000
  C   C25       1.0  0.20976  0.53505  0.26145  1.0000
  C   C26       1.0  0.18727  0.53787  0.26145  1.0000
  C   C27       1.0  0.10253  0.65826  0.33719  1.0000
  C   C28       1.0  0.11306  0.67250  0.25726  1.0000
  C   C29       1.0  0.13368  0.69888  0.25983  1.0000
  C   C30       1.0  0.14441  0.71177  0.34209  1.0000
  C   C31       1.0  0.16617  0.73820  0.34450  1.0000
  C   C32       1.0  0.16740  0.75796  0.28650  1.0000
  C   C33       1.0  0.18924  0.78373  0.28733  1.0000
  C   C34       1.0  0.21042  0.79073  0.34726  1.0000
  C   C35       1.0  0.96478  0.58970  0.33010  1.0000
  C   C36       1.0  0.92282  0.60122  0.32634  1.0000
  C   C37       1.0  0.93501  0.59990  0.24647  1.0000
  C   C38       1.0  0.95568  0.59421  0.24817  1.0000
  C   C39       1.0  0.90089  0.60562  0.32430  1.0000
  C   C40       1.0  0.88019  0.59244  0.26171  1.0000
  C   C41       1.0  0.85805  0.59584  0.26166  1.0000
  C   C42       1.0  0.85562  0.61254  0.32435  1.0000
  C   C43       1.0  0.96443  0.47066  0.33711  1.0000
  C   C44       1.0  0.95362  0.45660  0.25717  1.0000
  C   C45       1.0  0.93279  0.43031  0.25975  1.0000
  C   C46       1.0  0.92210  0.41736  0.34202  1.0000
  C   C47       1.0  0.90002  0.39111  0.34444  1.0000
  C   C48       1.0  0.85507  0.33900  0.34699  1.0000
  C   C49       1.0  0.87605  0.34571  0.28688  1.0000
  C   C50       1.0  0.89823  0.37127  0.28616  1.0000
  H   H3        1.0  0.87549  0.33193  0.24372  1.0000
  H   H4        1.0  0.91321  0.37519  0.24274  1.0000
  H   H5        1.0  0.92484  0.42106  0.20048  1.0000
  H   H6        1.0  0.96042  0.46560  0.19661  1.0000
  H   H7        1.0  0.05827  0.49052  0.33812  1.0000
  H   H8        1.0  0.03343  0.54442  0.32970  1.0000
  H   H9        1.0  0.03355  0.58450  0.32965  1.0000
  H   H10       1.0  0.93286  0.49267  0.33004  1.0000
  H   H11       1.0  0.93298  0.53610  0.32787  1.0000
  H   H12       1.0  0.96376  0.59297  0.18916  1.0000
  H   H13       1.0  0.92891  0.60304  0.18587  1.0000
  H   H14       1.0  0.05872  0.66328  0.33971  1.0000
  H   H15       1.0  0.13411  0.63627  0.33016  1.0000
  H   H16       1.0  0.10618  0.66358  0.19670  1.0000
  H   H17       1.0  0.14140  0.70830  0.20054  1.0000
  H   H18       1.0  0.18940  0.79746  0.24438  1.0000
  H   H19       1.0  0.15226  0.75383  0.24323  1.0000
  H   H20       1.0  0.18649  0.55072  0.21671  1.0000
  H   H21       1.0  0.22439  0.54603  0.21677  1.0000
  H   H22       1.0  0.13805  0.52632  0.18629  1.0000
  H   H23       1.0  0.10287  0.53590  0.18964  1.0000
  H   H24       1.0  0.88056  0.57940  0.21724  1.0000
  H   H25       1.0  0.84321  0.58505  0.21731  1.0000
  C   C51       1.0  0.54489  0.51993  0.33398  1.0000
  C   C52       1.0  0.56529  0.51412  0.33227  1.0000
  C   C53       1.0  0.58889  0.53764  0.33350  1.0000
  C   C54       1.0  0.56498  0.67557  0.25138  1.0000
  C   C55       1.0  0.57036  0.70184  0.24962  1.0000
  C   C56       1.0  0.56475  0.77390  0.26411  1.0000
  C   C57       1.0  0.56189  0.74857  0.26420  1.0000
  C   C58       1.0  0.42731  0.53974  0.25943  1.0000
  C   C59       1.0  0.40093  0.53397  0.26170  1.0000
  C   C60       1.0  0.34182  0.50850  0.28778  1.0000
  C   C61       1.0  0.31604  0.50454  0.28822  1.0000
  C   C62       1.0  0.30898  0.51862  0.34783  1.0000
  C   C63       1.0  0.49985  0.43432  0.24918  1.0000
  C   C64       1.0  0.50553  0.46067  0.25090  1.0000
  C   C65       1.0  0.50735  0.38695  0.26441  1.0000
  C   C66       1.0  0.50396  0.36141  0.26435  1.0000
  C   C67       1.0  0.64309  0.59620  0.25935  1.0000
  C   C68       1.0  0.66937  0.60164  0.26163  1.0000
  C   C69       1.0  0.76078  0.61511  0.34760  1.0000
  C   C70       1.0  0.75400  0.62952  0.28781  1.0000
  C   C71       1.0  0.72844  0.62613  0.28747  1.0000
  H   H26       1.0  0.76774  0.64284  0.24454  1.0000
  H   H27       1.0  0.72447  0.63728  0.24421  1.0000
  H   H28       1.0  0.67860  0.60311  0.20225  1.0000
  H   H29       1.0  0.63404  0.59413  0.19889  1.0000
  H   H30       1.0  0.60707  0.53920  0.33280  1.0000
  H   H31       1.0  0.50680  0.47012  0.19189  1.0000
  H   H32       1.0  0.49673  0.42521  0.18858  1.0000
  H   H33       1.0  0.46134  0.46934  0.34009  1.0000
  H   H34       1.0  0.43628  0.54188  0.19898  1.0000
  H   H35       1.0  0.39154  0.53235  0.20231  1.0000
  H   H36       1.0  0.30236  0.49105  0.24520  1.0000
  H   H37       1.0  0.34599  0.49756  0.24474  1.0000
  H   H38       1.0  0.54904  0.73503  0.21948  1.0000
  H   H39       1.0  0.55374  0.77764  0.21954  1.0000
  H   H40       1.0  0.57341  0.71104  0.18902  1.0000
  H   H41       1.0  0.56381  0.66626  0.19240  1.0000
  H   H42       1.0  0.52037  0.40045  0.21994  1.0000
  H   H43       1.0  0.51476  0.35747  0.21997  1.0000
  C   C72       1.0  0.42433  0.98867  0.25275  1.0000
  C   C73       1.0  0.39807  0.96780  0.25045  1.0000
  C   C74       1.0  0.32602  0.89006  0.26335  1.0000
  C   C75       1.0  0.35134  0.91254  0.26395  1.0000
  C   C76       1.0  0.56004  0.98674  0.26203  1.0000
  C   C77       1.0  0.56584  0.96614  0.26430  1.0000
  C   C78       1.0  0.59131  0.93246  0.29039  1.0000
  C   C79       1.0  0.59528  0.91064  0.29084  1.0000
  C   C80       1.0  0.66529  0.16461  0.24997  1.0000
  C   C81       1.0  0.63894  0.14395  0.25223  1.0000
  C   C82       1.0  0.71270  0.21944  0.26409  1.0000
  C   C83       1.0  0.73825  0.24159  0.26347  1.0000
  C   C84       1.0  0.50355  0.14604  0.26201  1.0000
  C   C85       1.0  0.49809  0.16687  0.26432  1.0000
  C   C86       1.0  0.47033  0.22365  0.29052  1.0000
  C   C87       1.0  0.47368  0.20145  0.29020  1.0000
  H   H44       1.0  0.45702  0.22417  0.24726  1.0000
  H   H45       1.0  0.46252  0.18643  0.24696  1.0000
  H   H46       1.0  0.49666  0.17477  0.20495  1.0000
  H   H47       1.0  0.50562  0.13919  0.20154  1.0000
  H   H48       1.0  0.62939  0.13581  0.19343  1.0000
  H   H49       1.0  0.67430  0.17065  0.18918  1.0000
  H   H50       1.0  0.55788  0.99367  0.20157  1.0000
  H   H51       1.0  0.56742  0.95847  0.20491  1.0000
  H   H52       1.0  0.60877  0.91055  0.24781  1.0000
  H   H53       1.0  0.60223  0.94765  0.24730  1.0000
  H   H54       1.0  0.36496  0.91338  0.21947  1.0000
  H   H55       1.0  0.32236  0.87547  0.21858  1.0000
  H   H56       1.0  0.38897  0.96184  0.18967  1.0000
  H   H57       1.0  0.43373  0.99701  0.19396  1.0000
  H   H58       1.0  0.69912  0.21904  0.21998  1.0000
  H   H59       1.0  0.74211  0.25639  0.21909  1.0000
  N   N5        1.0  0.27459  0.51892  0.26532  1.0000
  C   C88       1.0  0.25189  0.51942  0.25340  1.0000
  H   H60       1.0  0.24681  0.52194  0.19037  1.0000
  N   N6        1.0  0.58092  0.85487  0.26803  1.0000
  C   C89       1.0  0.58040  0.83169  0.25611  1.0000
  H   H61       1.0  0.57784  0.82419  0.19308  1.0000
  N   N7        1.0  0.24507  0.82520  0.26546  1.0000
  C   C90       1.0  0.26826  0.84792  0.25405  1.0000
  C   C91       1.0  0.28141  0.86352  0.32926  1.0000
  H   H62       1.0  0.27585  0.85308  0.19118  1.0000
  N   N8        1.0  0.79451  0.61389  0.26510  1.0000
  C   C92       1.0  0.81686  0.61278  0.25318  1.0000
  H   H63       1.0  0.82165  0.61003  0.19023  1.0000
  N   N9        1.0  0.48600  0.27984  0.26773  1.0000
  C   C93       1.0  0.48708  0.30332  0.25583  1.0000
  H   H64       1.0  0.48980  0.31098  0.19286  1.0000
  N   N10       1.0  0.81982  0.30517  0.26519  1.0000
  C   C94       1.0  0.79633  0.28279  0.25379  1.0000
  C   C95       1.0  0.78311  0.26716  0.32895  1.0000
  H   H65       1.0  0.78855  0.27793  0.19099  1.0000
  C   C96       1.0  0.09132  0.61238  0.33303  1.0000
  C   C97       1.0  0.13512  0.53243  0.40854  1.0000
  C   C98       1.0  0.11428  0.53787  0.41058  1.0000
  C   C99       1.0  0.16975  0.50792  0.38719  1.0000
  C   C100      1.0  0.19232  0.50520  0.38746  1.0000
  C   C101      1.0  0.21281  0.51869  0.32457  1.0000
  C   C102      1.0  0.13341  0.69734  0.42185  1.0000
  C   C103      1.0  0.11279  0.67096  0.41959  1.0000
  C   C104      1.0  0.20940  0.77105  0.40478  1.0000
  C   C105      1.0  0.18763  0.74529  0.40356  1.0000
  C   C106      1.0  0.95305  0.59130  0.41023  1.0000
  C   C107      1.0  0.93241  0.59705  0.40823  1.0000
  C   C108      1.0  0.87635  0.62578  0.38680  1.0000
  C   C109      1.0  0.89858  0.62248  0.38654  1.0000
  C   C110      1.0  0.95424  0.45787  0.41951  1.0000
  C   C111      1.0  0.93341  0.43159  0.42177  1.0000
  C   C112      1.0  0.87874  0.38431  0.40366  1.0000
  C   C113      1.0  0.85665  0.35875  0.40485  1.0000
  H   H66       1.0  0.84139  0.35490  0.44692  1.0000
  H   H67       1.0  0.87872  0.39819  0.44494  1.0000
  H   H68       1.0  0.92653  0.42295  0.48273  1.0000
  H   H69       1.0  0.96164  0.46772  0.47835  1.0000
  H   H70       1.0  0.95906  0.58773  0.47035  1.0000
  H   H71       1.0  0.92377  0.59714  0.46738  1.0000
  H   H72       1.0  0.13400  0.59284  0.32811  1.0000
  H   H73       1.0  0.10556  0.66100  0.47843  1.0000
  H   H74       1.0  0.14031  0.70593  0.48280  1.0000
  H   H75       1.0  0.18805  0.73149  0.44462  1.0000
  H   H76       1.0  0.22481  0.77514  0.44673  1.0000
  H   H77       1.0  0.10842  0.54147  0.47066  1.0000
  H   H78       1.0  0.14404  0.53258  0.46760  1.0000
  H   H79       1.0  0.19354  0.49307  0.43427  1.0000
  H   H80       1.0  0.15538  0.49760  0.43349  1.0000
  H   H81       1.0  0.91317  0.63266  0.43245  1.0000
  H   H82       1.0  0.87557  0.63814  0.43325  1.0000
  C   C114      1.0  0.61404  0.63298  0.34037  1.0000
  C   C115      1.0  0.60049  0.64666  0.33930  1.0000
  C   C116      1.0  0.57351  0.62837  0.33641  1.0000
  N   N11       1.0  0.57172  0.60438  0.33575  1.0000
  C   C117      1.0  0.59564  0.60602  0.33793  1.0000
  C   C118      1.0  0.60196  0.58552  0.33736  1.0000
  C   C119      1.0  0.58320  0.55813  0.33553  1.0000
  N   N12       1.0  0.55662  0.54652  0.33585  1.0000
  C   C120      1.0  0.51747  0.50128  0.33427  1.0000
  C   C121      1.0  0.49707  0.50773  0.33612  1.0000
  N   N13       1.0  0.49885  0.53172  0.33563  1.0000
  C   C122      1.0  0.47493  0.53007  0.33784  1.0000
  C   C123      1.0  0.45654  0.50311  0.34007  1.0000
  C   C124      1.0  0.47009  0.48943  0.33889  1.0000
  C   C125      1.0  0.46861  0.55058  0.33749  1.0000
  C   C126      1.0  0.48737  0.57796  0.33579  1.0000
  N   N14       1.0  0.51395  0.58958  0.33613  1.0000
  C   C127      1.0  0.52568  0.61617  0.33430  1.0000
  C   C128      1.0  0.50526  0.62198  0.33257  1.0000
  C   C129      1.0  0.48167  0.59845  0.33376  1.0000
  C   C130      1.0  0.55309  0.63483  0.33462  1.0000
  C   C131      1.0  0.56051  0.66200  0.33329  1.0000
  C   C132      1.0  0.57142  0.71529  0.32939  1.0000
  C   C133      1.0  0.56733  0.70156  0.41128  1.0000
  C   C134      1.0  0.56192  0.67529  0.41335  1.0000
  C   C135      1.0  0.57533  0.74144  0.32722  1.0000
  C   C136      1.0  0.59187  0.76075  0.38987  1.0000
  C   C137      1.0  0.59460  0.78604  0.39014  1.0000
  C   C138      1.0  0.58110  0.79316  0.32728  1.0000
  C   C139      1.0  0.44148  0.54328  0.33953  1.0000
  C   C140      1.0  0.38796  0.53163  0.34381  1.0000
  C   C141      1.0  0.40233  0.53491  0.42372  1.0000
  C   C142      1.0  0.42871  0.54068  0.42179  1.0000
  C   C143      1.0  0.36152  0.52693  0.34588  1.0000
  C   C144      1.0  0.32860  0.53719  0.40547  1.0000
  C   C145      1.0  0.35438  0.54121  0.40460  1.0000
  C   C146      1.0  0.51004  0.47410  0.33285  1.0000
  C   C147      1.0  0.50840  0.46059  0.41297  1.0000
  C   C148      1.0  0.50268  0.43422  0.41094  1.0000
  C   C149      1.0  0.49851  0.42063  0.32903  1.0000
  C   C150      1.0  0.49414  0.39431  0.32698  1.0000
  C   C151      1.0  0.48726  0.34213  0.32698  1.0000
  C   C152      1.0  0.47401  0.34949  0.38945  1.0000
  C   C153      1.0  0.47728  0.37500  0.38919  1.0000
  C   C154      1.0  0.62909  0.59278  0.33943  1.0000
  C   C155      1.0  0.64195  0.59521  0.42170  1.0000
  C   C156      1.0  0.68240  0.60375  0.34376  1.0000
  C   C157      1.0  0.66822  0.60065  0.42366  1.0000
  C   C158      1.0  0.70866  0.60794  0.34585  1.0000
  C   C159      1.0  0.71552  0.59333  0.40481  1.0000
  C   C160      1.0  0.74108  0.59680  0.40558  1.0000
  H   H83       1.0  0.74498  0.58530  0.44746  1.0000
  H   H84       1.0  0.70169  0.57934  0.44615  1.0000
  H   H85       1.0  0.67691  0.60228  0.48452  1.0000
  H   H86       1.0  0.63213  0.59261  0.48064  1.0000
  H   H87       1.0  0.63412  0.64163  0.34222  1.0000
  H   H88       1.0  0.60923  0.66676  0.34062  1.0000
  H   H89       1.0  0.55533  0.58803  0.33256  1.0000
  H   H90       1.0  0.51525  0.54808  0.33273  1.0000
  H   H91       1.0  0.56364  0.49590  0.33077  1.0000
  H   H92       1.0  0.51199  0.47006  0.47309  1.0000
  H   H93       1.0  0.50259  0.42537  0.47009  1.0000
  H   H94       1.0  0.43646  0.49445  0.34196  1.0000
  H   H95       1.0  0.50691  0.64019  0.33098  1.0000
  H   H96       1.0  0.46348  0.59688  0.33294  1.0000
  H   H97       1.0  0.43863  0.54331  0.48074  1.0000
  H   H98       1.0  0.39368  0.53310  0.48457  1.0000
  H   H99       1.0  0.36812  0.55533  0.44581  1.0000
  H   H100      1.0  0.32447  0.54844  0.44724  1.0000
  H   H101      1.0  0.55830  0.66571  0.47343  1.0000
  H   H102      1.0  0.56722  0.71023  0.47034  1.0000
  H   H103      1.0  0.60673  0.79930  0.43694  1.0000
  H   H104      1.0  0.60220  0.75661  0.43615  1.0000
  H   H105      1.0  0.46709  0.37931  0.43510  1.0000
  H   H106      1.0  0.46164  0.33624  0.43586  1.0000
  C   C161      1.0  0.46677  0.08004  0.34260  1.0000
  C   C162      1.0  0.45309  0.05281  0.34137  1.0000
  C   C163      1.0  0.47139  0.04413  0.33864  1.0000
  N   N15       1.0  0.49538  0.06634  0.33820  1.0000
  C   C164      1.0  0.49373  0.08861  0.34040  1.0000
  C   C165      1.0  0.51424  0.11544  0.33999  1.0000
  C   C166      1.0  0.54162  0.12407  0.33810  1.0000
  N   N16       1.0  0.55324  0.10911  0.33831  1.0000
  C   C167      1.0  0.57982  0.12396  0.33624  1.0000
  C   C168      1.0  0.58563  0.15019  0.33453  1.0000
  C   C169      1.0  0.56211  0.15025  0.33601  1.0000
  C   C170      1.0  0.59848  0.11520  0.33639  1.0000
  C   C171      1.0  0.59203  0.08834  0.33844  1.0000
  N   N17       1.0  0.56804  0.06613  0.33816  1.0000
  C   C172      1.0  0.56969  0.04386  0.34040  1.0000
  C   C173      1.0  0.59666  0.05243  0.34260  1.0000
  C   C174      1.0  0.61033  0.07966  0.34121  1.0000
  C   C175      1.0  0.54919  0.01703  0.34007  1.0000
  C   C176      1.0  0.52180  0.00840  0.33829  1.0000
  N   N18       1.0  0.51018  0.02336  0.33858  1.0000
  C   C177      1.0  0.48360  0.00851  0.33659  1.0000
  C   C178      1.0  0.47779  0.98229  0.33482  1.0000
  C   C179      1.0  0.50132  0.98222  0.33616  1.0000
  C   C180      1.0  0.46494  0.01727  0.33675  1.0000
  C   C181      1.0  0.43777  0.99751  0.33493  1.0000
  C   C182      1.0  0.38450  0.95514  0.32992  1.0000
  C   C183      1.0  0.39808  0.96451  0.41209  1.0000
  C   C184      1.0  0.42435  0.98536  0.41470  1.0000
  C   C185      1.0  0.35835  0.93291  0.32718  1.0000
  C   C186      1.0  0.33892  0.92992  0.38949  1.0000
  C   C187      1.0  0.31363  0.90736  0.38918  1.0000
  C   C188      1.0  0.30663  0.88694  0.32608  1.0000
  C   C189      1.0  0.55649  0.99720  0.34212  1.0000
  C   C190      1.0  0.56817  0.95534  0.34641  1.0000
  C   C191      1.0  0.56488  0.96626  0.42633  1.0000
  C   C192      1.0  0.55910  0.98686  0.42438  1.0000
  C   C193      1.0  0.57288  0.93360  0.34849  1.0000
  C   C194      1.0  0.58123  0.88939  0.35050  1.0000
  C   C195      1.0  0.56267  0.89032  0.40819  1.0000
  C   C196      1.0  0.55863  0.91207  0.40731  1.0000
  C   C197      1.0  0.62565  0.13494  0.33446  1.0000
  C   C198      1.0  0.63929  0.14674  0.41429  1.0000
  C   C199      1.0  0.66566  0.16740  0.41172  1.0000
  C   C200      1.0  0.67912  0.17689  0.32954  1.0000
  C   C201      1.0  0.70544  0.19882  0.32691  1.0000
  C   C202      1.0  0.75762  0.24410  0.32579  1.0000
  C   C203      1.0  0.75037  0.22344  0.38847  1.0000
  C   C204      1.0  0.72485  0.20121  0.38877  1.0000
  C   C205      1.0  0.50697  0.13529  0.34208  1.0000
  C   C206      1.0  0.50455  0.14555  0.42436  1.0000
  C   C207      1.0  0.49601  0.17763  0.34646  1.0000
  C   C208      1.0  0.49912  0.16639  0.42636  1.0000
  C   C209      1.0  0.49186  0.19972  0.34857  1.0000
  C   C210      1.0  0.50649  0.22106  0.40753  1.0000
  C   C211      1.0  0.50307  0.24319  0.40824  1.0000
  C   C212      1.0  0.48477  0.24471  0.35028  1.0000
  H   H107      1.0  0.51458  0.25849  0.45013  1.0000
  H   H108      1.0  0.52047  0.22112  0.44885  1.0000
  H   H109      1.0  0.49750  0.17333  0.48722  1.0000
  H   H110      1.0  0.50714  0.13821  0.48330  1.0000
  H   H111      1.0  0.45812  0.09146  0.34442  1.0000
  H   H112      1.0  0.43300  0.04145  0.34252  1.0000
  H   H113      1.0  0.51173  0.06630  0.33534  1.0000
  H   H114      1.0  0.55168  0.06617  0.33511  1.0000
  H   H115      1.0  0.56054  0.16687  0.33526  1.0000
  H   H116      1.0  0.60385  0.16675  0.33291  1.0000
  H   H117      1.0  0.62993  0.14081  0.47461  1.0000
  H   H118      1.0  0.67461  0.17609  0.47068  1.0000
  H   H119      1.0  0.63043  0.09101  0.34223  1.0000
  H   H120      1.0  0.60532  0.04101  0.34438  1.0000
  H   H121      1.0  0.45958  0.96573  0.33310  1.0000
  H   H122      1.0  0.50289  0.96561  0.33532  1.0000
  H   H123      1.0  0.55648  0.99405  0.48333  1.0000
  H   H124      1.0  0.56669  0.95930  0.48718  1.0000
  H   H125      1.0  0.54448  0.91159  0.44845  1.0000
  H   H126      1.0  0.55141  0.87485  0.44991  1.0000
  H   H127      1.0  0.43383  0.99116  0.47496  1.0000
  H   H128      1.0  0.38932  0.95555  0.47097  1.0000
  H   H129      1.0  0.30029  0.90608  0.43573  1.0000
  H   H130      1.0  0.34298  0.94424  0.43592  1.0000
  H   H131      1.0  0.72061  0.18667  0.43484  1.0000
  H   H132      1.0  0.76369  0.22427  0.43466  1.0000
  C   C213      1.0  0.28329  0.51544  0.34582  1.0000
  C   C214      1.0  0.23621  0.51688  0.32831  1.0000
  N   N19       1.0  0.24491  0.51305  0.40831  1.0000
  C   C215      1.0  0.26732  0.51191  0.42177  1.0000
  C   C216      1.0  0.27228  0.50681  0.51032  1.0000
  O   O1        1.0  0.26270  0.51456  0.57874  1.0000
  N   N20       1.0  0.28328  0.49190  0.53092  1.0000
  H   H133      1.0  0.28737  0.48282  0.48505  1.0000
  H   H134      1.0  0.28434  0.48750  0.59289  1.0000
  C   C217      1.0  0.58443  0.86689  0.34851  1.0000
  C   C218      1.0  0.58293  0.81839  0.33102  1.0000
  N   N21       1.0  0.58676  0.83075  0.41101  1.0000
  C   C219      1.0  0.58793  0.85428  0.42448  1.0000
  C   C220      1.0  0.59303  0.86416  0.51303  1.0000
  O   O2        1.0  0.58517  0.84669  0.58148  1.0000
  N   N22       1.0  0.60803  0.89001  0.53363  1.0000
  H   H135      1.0  0.61689  0.90335  0.48784  1.0000
  H   H136      1.0  0.61215  0.89541  0.59566  1.0000
  C   C221      1.0  0.23293  0.81642  0.34572  1.0000
  N   N23       1.0  0.26890  0.85475  0.40899  1.0000
  C   C222      1.0  0.24536  0.83232  0.42195  1.0000
  C   C223      1.0  0.23531  0.82726  0.51028  1.0000
  O   O3        1.0  0.25265  0.83677  0.57907  1.0000
  N   N24       1.0  0.20941  0.81623  0.53033  1.0000
  H   H137      1.0  0.19624  0.81219  0.48418  1.0000
  H   H138      1.0  0.20396  0.81511  0.59219  1.0000
  C   C224      1.0  0.78622  0.61771  0.34552  1.0000
  C   C225      1.0  0.83257  0.61498  0.32804  1.0000
  N   N25       1.0  0.82428  0.61913  0.40795  1.0000
  C   C226      1.0  0.80223  0.62088  0.42140  1.0000
  C   C227      1.0  0.79767  0.62621  0.50985  1.0000
  O   O4        1.0  0.80697  0.61803  0.57845  1.0000
  N   N26       1.0  0.78734  0.64167  0.53017  1.0000
  H   H139      1.0  0.78313  0.65073  0.48421  1.0000
  H   H140      1.0  0.78618  0.64588  0.59212  1.0000
  C   C228      1.0  0.48222  0.26759  0.34816  1.0000
  C   C229      1.0  0.48485  0.31665  0.33068  1.0000
  N   N27       1.0  0.48070  0.30405  0.41058  1.0000
  C   C230      1.0  0.47898  0.28024  0.42403  1.0000
  C   C231      1.0  0.47364  0.27015  0.51246  1.0000
  O   O5        1.0  0.48168  0.28749  0.58105  1.0000
  N   N28       1.0  0.45826  0.24430  0.53272  1.0000
  H   H141      1.0  0.44899  0.23121  0.48665  1.0000
  H   H142      1.0  0.45374  0.23887  0.59460  1.0000
  C   C232      1.0  0.83222  0.31355  0.34537  1.0000
  N   N29       1.0  0.79585  0.27554  0.40860  1.0000
  C   C233      1.0  0.81969  0.29761  0.42153  1.0000
  C   C234      1.0  0.82991  0.30227  0.50977  1.0000
  O   O6        1.0  0.81270  0.29303  0.57874  1.0000
  N   N30       1.0  0.85578  0.31264  0.52957  1.0000
  H   H143      1.0  0.86889  0.31681  0.48334  1.0000
  H   H144      1.0  0.86140  0.31387  0.59141  1.0000
