data_image0
_chemical_formula_structural       C5NH3C5NH3C5NH3C24H15C24H15NC5H3NC5H3NC5H3
_chemical_formula_sum              "C78 N6 H48"
_cell_length_a       37.4031
_cell_length_b       37.403
_cell_length_c       14.9331
_cell_angle_alpha    90
_cell_angle_beta     90
_cell_angle_gamma    120

_space_group_name_H-M_alt    "P 1"
_space_group_IT_number       1

loop_
  _space_group_symop_operation_xyz
  'x, y, z'

loop_
  _atom_site_type_symbol
  _atom_site_label
  _atom_site_symmetry_multiplicity
  _atom_site_fract_x
  _atom_site_fract_y
  _atom_site_fract_z
  _atom_site_occupancy
  C   C1        1.0  0.44863  0.55698  0.33645  1.0000
  C   C2        1.0  0.45956  0.54606  0.25474  1.0000
  C   C3        1.0  0.48129  0.52433  0.25428  1.0000
  C   C4        1.0  0.49235  0.51326  0.33613  1.0000
  C   C5        1.0  0.54660  0.45901  0.25963  1.0000
  N   N1        1.0  0.52566  0.47995  0.26306  1.0000
  H   H1        1.0  0.55375  0.45187  0.19860  1.0000
  H   H2        1.0  0.45179  0.55384  0.19506  1.0000
  H   H3        1.0  0.48880  0.51683  0.19404  1.0000
  C   C6        1.0  0.44863  0.89277  0.33646  1.0000
  C   C7        1.0  0.45954  0.91462  0.25474  1.0000
  C   C8        1.0  0.48127  0.95808  0.25428  1.0000
  C   C9        1.0  0.49235  0.98021  0.33613  1.0000
  C   C10       1.0  0.54659  0.08871  0.25963  1.0000
  N   N2        1.0  0.52565  0.04684  0.26306  1.0000
  H   H4        1.0  0.55373  0.10300  0.19860  1.0000
  H   H5        1.0  0.45177  0.89907  0.19507  1.0000
  H   H6        1.0  0.48877  0.97308  0.19404  1.0000
  C   C11       1.0  0.11283  0.55697  0.33646  1.0000
  C   C12       1.0  0.09098  0.54604  0.25474  1.0000
  C   C13       1.0  0.04752  0.52432  0.25428  1.0000
  C   C14       1.0  0.02539  0.51325  0.33613  1.0000
  C   C15       1.0  0.91690  0.45900  0.25963  1.0000
  N   N3        1.0  0.95876  0.47994  0.26306  1.0000
  H   H7        1.0  0.90260  0.45186  0.19860  1.0000
  H   H8        1.0  0.10653  0.55381  0.19506  1.0000
  H   H9        1.0  0.03252  0.51681  0.19404  1.0000
  C   C16       1.0  0.29160  0.64636  0.33817  1.0000
  C   C17       1.0  0.31542  0.62635  0.33816  1.0000
  C   C18       1.0  0.35924  0.64636  0.33817  1.0000
  C   C19       1.0  0.37925  0.69019  0.33816  1.0000
  C   C20       1.0  0.35924  0.71400  0.33817  1.0000
  C   C21       1.0  0.31542  0.69019  0.33816  1.0000
  C   C22       1.0  0.38199  0.62361  0.33819  1.0000
  C   C23       1.0  0.36189  0.57954  0.33814  1.0000
  C   C24       1.0  0.38344  0.55763  0.33792  1.0000
  C   C25       1.0  0.42682  0.57879  0.33781  1.0000
  C   C26       1.0  0.44798  0.62217  0.33791  1.0000
  C   C27       1.0  0.42606  0.64372  0.33814  1.0000
  C   C28       1.0  0.24610  0.62361  0.33819  1.0000
  C   C29       1.0  0.22214  0.57954  0.33814  1.0000
  C   C30       1.0  0.17868  0.55763  0.33792  1.0000
  C   C31       1.0  0.15646  0.57879  0.33782  1.0000
  C   C32       1.0  0.17868  0.62217  0.33792  1.0000
  C   C33       1.0  0.22214  0.64372  0.33814  1.0000
  C   C34       1.0  0.38199  0.75950  0.33818  1.0000
  C   C35       1.0  0.36189  0.78346  0.33814  1.0000
  C   C36       1.0  0.38343  0.82693  0.33792  1.0000
  C   C37       1.0  0.42681  0.84915  0.33783  1.0000
  C   C38       1.0  0.44798  0.82693  0.33792  1.0000
  C   C39       1.0  0.42606  0.78346  0.33814  1.0000
  H   H10       1.0  0.16334  0.52601  0.33761  1.0000
  H   H11       1.0  0.23534  0.56151  0.33810  1.0000
  H   H12       1.0  0.16334  0.63845  0.33761  1.0000
  H   H13       1.0  0.23534  0.67494  0.33812  1.0000
  H   H14       1.0  0.33066  0.77027  0.33810  1.0000
  H   H15       1.0  0.36715  0.84226  0.33761  1.0000
  H   H16       1.0  0.44409  0.77027  0.33810  1.0000
  H   H17       1.0  0.47959  0.84226  0.33761  1.0000
  H   H18       1.0  0.44409  0.67495  0.33811  1.0000
  H   H19       1.0  0.47959  0.63845  0.33761  1.0000
  H   H20       1.0  0.36715  0.52601  0.33762  1.0000
  H   H21       1.0  0.33066  0.56151  0.33812  1.0000
  H   H22       1.0  0.29995  0.59542  0.33818  1.0000
  H   H23       1.0  0.29995  0.70565  0.33817  1.0000
  H   H24       1.0  0.41019  0.70566  0.33818  1.0000
  C   C40       1.0  0.71512  0.35812  0.33743  1.0000
  C   C41       1.0  0.69130  0.37813  0.33743  1.0000
  C   C42       1.0  0.64748  0.35812  0.33743  1.0000
  C   C43       1.0  0.62747  0.31430  0.33743  1.0000
  C   C44       1.0  0.64748  0.29048  0.33743  1.0000
  C   C45       1.0  0.69130  0.31430  0.33743  1.0000
  C   C46       1.0  0.62473  0.38087  0.33753  1.0000
  C   C47       1.0  0.64484  0.42494  0.33766  1.0000
  C   C48       1.0  0.62329  0.44686  0.33808  1.0000
  C   C49       1.0  0.57991  0.42570  0.33832  1.0000
  C   C50       1.0  0.55875  0.38232  0.33809  1.0000
  C   C51       1.0  0.58066  0.36077  0.33766  1.0000
  C   C52       1.0  0.76062  0.38087  0.33753  1.0000
  C   C53       1.0  0.78458  0.42494  0.33766  1.0000
  C   C54       1.0  0.82805  0.44686  0.33808  1.0000
  C   C55       1.0  0.85027  0.42569  0.33832  1.0000
  C   C56       1.0  0.82805  0.38231  0.33808  1.0000
  C   C57       1.0  0.78458  0.36077  0.33766  1.0000
  C   C58       1.0  0.62473  0.24498  0.33753  1.0000
  C   C59       1.0  0.64484  0.22102  0.33766  1.0000
  C   C60       1.0  0.62329  0.17755  0.33809  1.0000
  C   C61       1.0  0.57991  0.15534  0.33831  1.0000
  C   C62       1.0  0.55875  0.17756  0.33808  1.0000
  C   C63       1.0  0.58066  0.22102  0.33766  1.0000
  H   H25       1.0  0.84338  0.47847  0.33844  1.0000
  H   H26       1.0  0.77139  0.44297  0.33762  1.0000
  H   H27       1.0  0.84338  0.36603  0.33843  1.0000
  H   H28       1.0  0.77139  0.32954  0.33761  1.0000
  H   H29       1.0  0.67606  0.23422  0.33762  1.0000
  H   H30       1.0  0.63957  0.16222  0.33843  1.0000
  H   H31       1.0  0.56263  0.23422  0.33762  1.0000
  H   H32       1.0  0.52713  0.16222  0.33843  1.0000
  H   H33       1.0  0.56263  0.32954  0.33762  1.0000
  H   H34       1.0  0.52713  0.36603  0.33843  1.0000
  H   H35       1.0  0.63958  0.47847  0.33843  1.0000
  H   H36       1.0  0.67607  0.44297  0.33761  1.0000
  H   H37       1.0  0.70677  0.40906  0.33741  1.0000
  H   H38       1.0  0.70677  0.29883  0.33741  1.0000
  H   H39       1.0  0.59654  0.29883  0.33741  1.0000
  N   N4        1.0  0.48105  0.52454  0.41322  1.0000
  C   C64       1.0  0.46012  0.54548  0.41661  1.0000
  C   C65       1.0  0.51438  0.49123  0.34017  1.0000
  C   C66       1.0  0.52545  0.48015  0.42200  1.0000
  C   C67       1.0  0.54718  0.45842  0.42150  1.0000
  C   C68       1.0  0.55810  0.44751  0.33976  1.0000
  H   H40       1.0  0.51795  0.48765  0.48225  1.0000
  H   H41       1.0  0.55496  0.45064  0.48116  1.0000
  H   H42       1.0  0.45296  0.55263  0.47762  1.0000
  N   N5        1.0  0.48106  0.95763  0.41322  1.0000
  C   C69       1.0  0.46013  0.91576  0.41661  1.0000
  C   C70       1.0  0.51437  0.02427  0.34017  1.0000
  C   C71       1.0  0.52545  0.04642  0.42200  1.0000
  C   C72       1.0  0.54718  0.08988  0.42150  1.0000
  C   C73       1.0  0.55809  0.11171  0.33976  1.0000
  H   H43       1.0  0.51796  0.03142  0.48225  1.0000
  H   H44       1.0  0.55497  0.10544  0.48115  1.0000
  H   H45       1.0  0.45298  0.90146  0.47763  1.0000
  N   N6        1.0  0.04797  0.52455  0.41322  1.0000
  C   C74       1.0  0.08984  0.54548  0.41661  1.0000
  C   C75       1.0  0.98133  0.49123  0.34017  1.0000
  C   C76       1.0  0.95918  0.48015  0.42200  1.0000
  C   C77       1.0  0.91572  0.45842  0.42150  1.0000
  C   C78       1.0  0.89389  0.44751  0.33976  1.0000
  H   H46       1.0  0.97418  0.48765  0.48225  1.0000
  H   H47       1.0  0.90016  0.45064  0.48116  1.0000
  H   H48       1.0  0.10415  0.55264  0.47763  1.0000
