data_image0
_chemical_formula_structural       C3NC3NC5NC5NC36H26N4C3NC3NC5NC5NC36H26N4C3NC3NC5NC5NC36H26N5C2HCHCHCHNC2HCHCHCHNC2HCHCHCHNC2HCHCHCHNC2HCHCHCHNC2HCHCHCHC16H16C16H16C16H16CNCNCNH5CHCNCNCNH5CHCNCNCNH5CHCNCNCNH5CHCNCNCNH5CHCNCNCNH5CH
_chemical_formula_sum              "C258 N48 H186"
_cell_length_a       67.3901
_cell_length_b       67.3901
_cell_length_c       14.861
_cell_angle_alpha    89.8352
_cell_angle_beta     90.1648
_cell_angle_gamma    120

_space_group_name_H-M_alt    "P 1"
_space_group_IT_number       1

loop_
  _space_group_symop_operation_xyz
  'x, y, z'

loop_
  _atom_site_type_symbol
  _atom_site_label
  _atom_site_symmetry_multiplicity
  _atom_site_fract_x
  _atom_site_fract_y
  _atom_site_fract_z
  _atom_site_occupancy
  C   C1        1.0  0.02665  0.62337  0.32398  1.0000
  C   C2        1.0  0.05034  0.63538  0.32494  1.0000
  C   C3        1.0  0.05806  0.61962  0.32315  1.0000
  N   N1        1.0  0.03879  0.59872  0.32113  1.0000
  C   C4        1.0  0.01930  0.59996  0.32165  1.0000
  C   C5        1.0  0.99599  0.58204  0.32053  1.0000
  C   C6        1.0  0.98872  0.55825  0.32032  1.0000
  N   N2        1.0  0.00181  0.54823  0.32181  1.0000
  C   C7        1.0  0.98902  0.52509  0.32168  1.0000
  C   C8        1.0  0.96620  0.51994  0.32008  1.0000
  C   C9        1.0  0.96602  0.54032  0.31883  1.0000
  C   C10       1.0  0.99665  0.50886  0.32323  1.0000
  C   C11       1.0  0.02007  0.51464  0.32325  1.0000
  N   N3        1.0  0.03934  0.53555  0.32116  1.0000
  C   C12       1.0  0.05882  0.53430  0.32164  1.0000
  C   C13       1.0  0.05148  0.51090  0.32405  1.0000
  C   C14       1.0  0.02779  0.49888  0.32509  1.0000
  C   C15       1.0  0.08213  0.55223  0.32044  1.0000
  C   C16       1.0  0.08940  0.57601  0.32025  1.0000
  N   N4        1.0  0.07631  0.58604  0.32163  1.0000
  C   C17       1.0  0.08911  0.60918  0.32159  1.0000
  C   C18       1.0  0.11193  0.61432  0.32025  1.0000
  C   C19       1.0  0.11210  0.59394  0.31898  1.0000
  C   C20       1.0  0.08149  0.62541  0.32310  1.0000
  C   C21       1.0  0.09874  0.64909  0.32570  1.0000
  C   C22       1.0  0.13703  0.69490  0.33195  1.0000
  C   C23       1.0  0.12784  0.68369  0.24886  1.0000
  C   C24       1.0  0.10909  0.66116  0.24565  1.0000
  C   C25       1.0  0.15699  0.71735  0.33507  1.0000
  C   C26       1.0  0.16005  0.73480  0.27365  1.0000
  C   C27       1.0  0.17993  0.75662  0.27540  1.0000
  C   C28       1.0  0.19760  0.76179  0.33856  1.0000
  C   C29       1.0  0.09963  0.54614  0.31982  1.0000
  C   C30       1.0  0.13778  0.53840  0.31637  1.0000
  C   C31       1.0  0.12598  0.53787  0.23642  1.0000
  C   C32       1.0  0.10728  0.54175  0.23791  1.0000
  C   C33       1.0  0.15747  0.53544  0.31440  1.0000
  C   C34       1.0  0.19725  0.53026  0.31200  1.0000
  C   C35       1.0  0.19353  0.54259  0.24362  1.0000
  C   C36       1.0  0.17413  0.54532  0.24531  1.0000
  C   C37       1.0  0.97941  0.48517  0.32591  1.0000
  C   C38       1.0  0.96927  0.47303  0.24583  1.0000
  C   C39       1.0  0.95067  0.45042  0.24901  1.0000
  C   C40       1.0  0.94143  0.43920  0.33208  1.0000
  C   C41       1.0  0.92166  0.41661  0.33511  1.0000
  C   C42       1.0  0.88151  0.37184  0.33864  1.0000
  C   C43       1.0  0.89933  0.37724  0.27628  1.0000
  C   C44       1.0  0.91898  0.39922  0.27452  1.0000
  C   C45       1.0  0.97847  0.58811  0.32001  1.0000
  C   C46       1.0  0.97081  0.59268  0.23821  1.0000
  C   C47       1.0  0.94004  0.59542  0.31648  1.0000
  C   C48       1.0  0.95198  0.59635  0.23668  1.0000
  C   C49       1.0  0.92015  0.59806  0.31441  1.0000
  C   C50       1.0  0.90359  0.58824  0.24478  1.0000
  C   C51       1.0  0.88397  0.59061  0.24308  1.0000
  C   C52       1.0  0.87992  0.60248  0.31199  1.0000
  H   H1        1.0  0.87239  0.58322  0.19178  1.0000
  H   H2        1.0  0.90541  0.57884  0.19496  1.0000
  H   H3        1.0  0.94702  0.59966  0.17600  1.0000
  H   H4        1.0  0.97859  0.59289  0.17888  1.0000
  H   H5        1.0  0.01662  0.63078  0.32525  1.0000
  H   H6        1.0  0.06012  0.65285  0.32663  1.0000
  H   H7        1.0  0.03892  0.58455  0.31886  1.0000
  H   H8        1.0  0.03920  0.54973  0.31882  1.0000
  H   H9        1.0  0.95151  0.54153  0.31730  1.0000
  H   H10       1.0  0.95184  0.50408  0.31949  1.0000
  H   H11       1.0  0.97493  0.48084  0.18464  1.0000
  H   H12       1.0  0.94328  0.44257  0.18951  1.0000
  H   H13       1.0  0.01801  0.48142  0.32683  1.0000
  H   H14       1.0  0.06150  0.50348  0.32528  1.0000
  H   H15       1.0  0.12629  0.63017  0.31986  1.0000
  H   H16       1.0  0.12661  0.59272  0.31769  1.0000
  H   H17       1.0  0.09956  0.54178  0.17853  1.0000
  H   H18       1.0  0.13091  0.53468  0.17568  1.0000
  H   H19       1.0  0.17253  0.55503  0.19589  1.0000
  H   H20       1.0  0.20518  0.55002  0.19270  1.0000
  H   H21       1.0  0.10351  0.65334  0.18450  1.0000
  H   H22       1.0  0.13539  0.69146  0.18945  1.0000
  H   H23       1.0  0.18132  0.76876  0.23049  1.0000
  H   H24       1.0  0.14760  0.73189  0.22746  1.0000
  H   H25       1.0  0.93157  0.40229  0.22900  1.0000
  H   H26       1.0  0.89822  0.36514  0.23204  1.0000
  N   N5        1.0  0.21690  0.78203  0.34416  1.0000
  N   N6        1.0  0.86130  0.60458  0.30650  1.0000
  N   N7        1.0  0.86241  0.35143  0.34426  1.0000
  N   N8        1.0  0.21565  0.52780  0.30643  1.0000
  C   C53       1.0  0.48127  0.49539  0.32603  1.0000
  C   C54       1.0  0.46926  0.50706  0.32689  1.0000
  C   C55       1.0  0.48502  0.53055  0.32515  1.0000
  N   N9        1.0  0.50593  0.53219  0.32320  1.0000
  C   C56       1.0  0.50467  0.51145  0.32373  1.0000
  C   C57       1.0  0.52260  0.50606  0.32265  1.0000
  C   C58       1.0  0.54638  0.52258  0.32241  1.0000
  N   N10       1.0  0.55641  0.54569  0.32388  1.0000
  C   C59       1.0  0.57956  0.55604  0.32369  1.0000
  C   C60       1.0  0.58470  0.53837  0.32208  1.0000
  C   C61       1.0  0.56432  0.51781  0.32087  1.0000
  C   C62       1.0  0.59579  0.57989  0.32520  1.0000
  C   C63       1.0  0.59000  0.59753  0.32526  1.0000
  N   N11       1.0  0.56909  0.59589  0.32319  1.0000
  C   C64       1.0  0.57035  0.61663  0.32370  1.0000
  C   C65       1.0  0.59375  0.63268  0.32610  1.0000
  C   C66       1.0  0.60576  0.62101  0.32712  1.0000
  C   C67       1.0  0.55242  0.62201  0.32255  1.0000
  C   C68       1.0  0.52864  0.60550  0.32235  1.0000
  N   N12       1.0  0.51861  0.58239  0.32372  1.0000
  C   C69       1.0  0.49547  0.57205  0.32364  1.0000
  C   C70       1.0  0.49033  0.58973  0.32226  1.0000
  C   C71       1.0  0.51071  0.61028  0.32107  1.0000
  C   C72       1.0  0.47923  0.54819  0.32508  1.0000
  C   C73       1.0  0.45555  0.54176  0.32757  1.0000
  C   C74       1.0  0.40974  0.53422  0.33350  1.0000
  C   C75       1.0  0.42097  0.53632  0.25049  1.0000
  C   C76       1.0  0.44350  0.54009  0.24742  1.0000
  C   C77       1.0  0.38728  0.53172  0.33644  1.0000
  C   C78       1.0  0.36985  0.51738  0.27501  1.0000
  C   C79       1.0  0.34803  0.51543  0.27655  1.0000
  C   C80       1.0  0.34283  0.52787  0.33954  1.0000
  C   C81       1.0  0.55851  0.64560  0.32196  1.0000
  C   C82       1.0  0.56626  0.69150  0.31856  1.0000
  C   C83       1.0  0.56679  0.68033  0.23861  1.0000
  C   C84       1.0  0.56292  0.65776  0.24008  1.0000
  C   C85       1.0  0.56922  0.71416  0.31660  1.0000
  C   C86       1.0  0.57439  0.75911  0.31422  1.0000
  C   C87       1.0  0.56209  0.74317  0.24579  1.0000
  C   C88       1.0  0.55934  0.72102  0.24750  1.0000
  C   C89       1.0  0.61947  0.58633  0.32777  1.0000
  C   C90       1.0  0.63159  0.58847  0.24760  1.0000
  C   C91       1.0  0.65420  0.59246  0.25063  1.0000
  C   C92       1.0  0.66545  0.59433  0.33363  1.0000
  C   C93       1.0  0.68805  0.59717  0.33649  1.0000
  C   C94       1.0  0.73282  0.60178  0.33957  1.0000
  C   C95       1.0  0.72740  0.61430  0.27741  1.0000
  C   C96       1.0  0.70542  0.61198  0.27588  1.0000
  C   C97       1.0  0.51653  0.48247  0.32215  1.0000
  C   C98       1.0  0.51195  0.47033  0.24035  1.0000
  C   C99       1.0  0.50922  0.43673  0.31864  1.0000
  C   C100      1.0  0.50828  0.44784  0.23884  1.0000
  C   C101      1.0  0.50659  0.41421  0.31659  1.0000
  C   C102      1.0  0.51640  0.40755  0.24695  1.0000
  C   C103      1.0  0.51404  0.38557  0.24526  1.0000
  C   C104      1.0  0.50217  0.36957  0.31418  1.0000
  H   H27       1.0  0.52143  0.38144  0.19396  1.0000
  H   H28       1.0  0.52581  0.41885  0.19712  1.0000
  H   H29       1.0  0.50498  0.43965  0.17816  1.0000
  H   H30       1.0  0.51173  0.47798  0.18102  1.0000
  H   H31       1.0  0.47385  0.47795  0.32721  1.0000
  H   H32       1.0  0.45179  0.49939  0.32852  1.0000
  H   H33       1.0  0.52010  0.54649  0.32108  1.0000
  H   H34       1.0  0.55492  0.58159  0.32083  1.0000
  H   H35       1.0  0.56310  0.50208  0.31932  1.0000
  H   H36       1.0  0.60056  0.53987  0.32142  1.0000
  H   H37       1.0  0.62377  0.58642  0.18645  1.0000
  H   H38       1.0  0.66206  0.59305  0.19108  1.0000
  H   H39       1.0  0.62323  0.62869  0.32888  1.0000
  H   H40       1.0  0.60117  0.65013  0.32741  1.0000
  H   H41       1.0  0.47448  0.58823  0.32184  1.0000
  H   H42       1.0  0.51194  0.62602  0.31973  1.0000
  H   H43       1.0  0.56290  0.65010  0.18068  1.0000
  H   H44       1.0  0.57000  0.68854  0.17788  1.0000
  H   H45       1.0  0.54965  0.70979  0.19803  1.0000
  H   H46       1.0  0.55466  0.74745  0.19485  1.0000
  H   H47       1.0  0.45134  0.54239  0.18632  1.0000
  H   H48       1.0  0.41320  0.53612  0.19099  1.0000
  H   H49       1.0  0.33590  0.50470  0.23166  1.0000
  H   H50       1.0  0.37278  0.50788  0.22897  1.0000
  H   H51       1.0  0.70232  0.62155  0.23047  1.0000
  H   H52       1.0  0.73948  0.62537  0.23315  1.0000
  N   N13       1.0  0.32259  0.52693  0.34492  1.0000
  N   N14       1.0  0.50007  0.34885  0.30869  1.0000
  N   N15       1.0  0.75324  0.60309  0.34497  1.0000
  N   N16       1.0  0.57686  0.77998  0.30865  1.0000
  C   C105      1.0  0.60926  0.07799  0.32731  1.0000
  C   C106      1.0  0.59759  0.05431  0.32834  1.0000
  C   C107      1.0  0.57410  0.04658  0.32665  1.0000
  N   N17       1.0  0.57246  0.06585  0.32463  1.0000
  C   C108      1.0  0.59320  0.08534  0.32502  1.0000
  C   C109      1.0  0.59857  0.10865  0.32383  1.0000
  C   C110      1.0  0.58206  0.11591  0.32371  1.0000
  N   N18       1.0  0.55895  0.10282  0.32533  1.0000
  C   C111      1.0  0.54859  0.11562  0.32523  1.0000
  C   C112      1.0  0.56626  0.13843  0.32358  1.0000
  C   C113      1.0  0.58682  0.13861  0.32217  1.0000
  C   C114      1.0  0.52474  0.10799  0.32681  1.0000
  C   C115      1.0  0.50710  0.08456  0.32677  1.0000
  N   N19       1.0  0.50875  0.06530  0.32461  1.0000
  C   C116      1.0  0.48802  0.04581  0.32498  1.0000
  C   C117      1.0  0.47195  0.05315  0.32735  1.0000
  C   C118      1.0  0.48362  0.07683  0.32853  1.0000
  C   C119      1.0  0.48264  0.02251  0.32370  1.0000
  C   C120      1.0  0.49915  0.01523  0.32362  1.0000
  N   N20       1.0  0.52226  0.02832  0.32512  1.0000
  C   C121      1.0  0.53261  0.01552  0.32512  1.0000
  C   C122      1.0  0.51493  0.99271  0.32365  1.0000
  C   C123      1.0  0.49437  0.99253  0.32231  1.0000
  C   C124      1.0  0.55646  0.02315  0.32665  1.0000
  C   C125      1.0  0.56290  0.00589  0.32919  1.0000
  C   C126      1.0  0.57044  0.96762  0.33531  1.0000
  C   C127      1.0  0.56835  0.97685  0.25226  1.0000
  C   C128      1.0  0.56458  0.99561  0.24910  1.0000
  C   C129      1.0  0.57294  0.94766  0.33834  1.0000
  C   C130      1.0  0.58729  0.94465  0.27698  1.0000
  C   C131      1.0  0.58925  0.92477  0.27860  1.0000
  C   C132      1.0  0.57679  0.90706  0.34156  1.0000
  C   C133      1.0  0.45905  0.00500  0.32277  1.0000
  C   C134      1.0  0.41315  0.96686  0.31862  1.0000
  C   C135      1.0  0.42440  0.97874  0.23887  1.0000
  C   C136      1.0  0.44697  0.99743  0.24070  1.0000
  C   C137      1.0  0.39051  0.94717  0.31628  1.0000
  C   C138      1.0  0.34556  0.90740  0.31313  1.0000
  C   C139      1.0  0.36157  0.91117  0.24493  1.0000
  C   C140      1.0  0.38371  0.93057  0.24700  1.0000
  C   C141      1.0  0.51829  0.12522  0.32950  1.0000
  C   C142      1.0  0.51612  0.13530  0.24938  1.0000
  C   C143      1.0  0.51213  0.15392  0.25250  1.0000
  C   C144      1.0  0.51029  0.16320  0.33553  1.0000
  C   C145      1.0  0.50747  0.18296  0.33847  1.0000
  C   C146      1.0  0.50286  0.22312  0.34168  1.0000
  C   C147      1.0  0.49032  0.20525  0.27954  1.0000
  C   C148      1.0  0.49264  0.18559  0.27793  1.0000
  C   C149      1.0  0.62216  0.12617  0.32303  1.0000
  C   C150      1.0  0.63423  0.13376  0.24107  1.0000
  C   C151      1.0  0.66789  0.16461  0.31879  1.0000
  C   C152      1.0  0.65672  0.15259  0.23919  1.0000
  C   C153      1.0  0.69041  0.18451  0.31634  1.0000
  C   C154      1.0  0.69700  0.20100  0.24650  1.0000
  C   C155      1.0  0.71898  0.22063  0.24445  1.0000
  C   C156      1.0  0.73504  0.22473  0.31315  1.0000
  H   H53       1.0  0.72307  0.23216  0.19298  1.0000
  H   H54       1.0  0.68566  0.19913  0.19681  1.0000
  H   H55       1.0  0.66486  0.15750  0.17840  1.0000
  H   H56       1.0  0.62654  0.12593  0.18186  1.0000
  H   H57       1.0  0.62670  0.08802  0.32846  1.0000
  H   H58       1.0  0.60527  0.04452  0.32999  1.0000
  H   H59       1.0  0.55815  0.06572  0.32247  1.0000
  H   H60       1.0  0.52305  0.06543  0.32231  1.0000
  H   H61       1.0  0.60255  0.15313  0.32054  1.0000
  H   H62       1.0  0.56476  0.15279  0.32288  1.0000
  H   H63       1.0  0.51818  0.12963  0.18820  1.0000
  H   H64       1.0  0.51155  0.16127  0.19296  1.0000
  H   H65       1.0  0.47594  0.08661  0.33031  1.0000
  H   H66       1.0  0.45451  0.04312  0.32856  1.0000
  H   H67       1.0  0.51643  0.97835  0.32325  1.0000
  H   H68       1.0  0.47864  0.97802  0.32089  1.0000
  H   H69       1.0  0.45468  0.00520  0.18145  1.0000
  H   H70       1.0  0.41624  0.97385  0.17802  1.0000
  H   H71       1.0  0.39500  0.93221  0.19771  1.0000
  H   H72       1.0  0.35734  0.89956  0.19390  1.0000
  H   H73       1.0  0.56230  0.00122  0.18797  1.0000
  H   H74       1.0  0.56857  0.96935  0.19279  1.0000
  H   H75       1.0  0.59999  0.92342  0.23376  1.0000
  H   H76       1.0  0.59681  0.95713  0.23095  1.0000
  H   H77       1.0  0.48305  0.17298  0.23255  1.0000
  H   H78       1.0  0.47924  0.20633  0.23535  1.0000
  N   N21       1.0  0.57774  0.88776  0.34701  1.0000
  N   N22       1.0  0.75576  0.24334  0.30729  1.0000
  N   N23       1.0  0.50156  0.24222  0.34712  1.0000
  N   N24       1.0  0.32469  0.88900  0.30723  1.0000
  N   N25       1.0  0.25593  0.52852  0.26491  1.0000
  C   C157      1.0  0.27468  0.52736  0.23999  1.0000
  C   C158      1.0  0.28729  0.52332  0.30626  1.0000
  H   H79       1.0  0.27973  0.53016  0.17417  1.0000
  C   C159      1.0  0.22546  0.51759  0.01081  1.0000
  H   H80       1.0  0.22707  0.51802  0.08402  1.0000
  C   C160      1.0  0.22521  0.48049  0.00738  1.0000
  H   H81       1.0  0.22724  0.48095  0.08039  1.0000
  C   C161      1.0  0.30702  0.52270  0.28553  1.0000
  H   H82       1.0  0.30963  0.51997  0.22202  1.0000
  N   N26       1.0  0.57611  0.81959  0.26711  1.0000
  C   C162      1.0  0.57727  0.83952  0.24216  1.0000
  C   C163      1.0  0.58134  0.85610  0.30841  1.0000
  H   H83       1.0  0.57446  0.84185  0.17634  1.0000
  C   C164      1.0  0.58700  0.80002  0.01325  1.0000
  H   H84       1.0  0.58659  0.80116  0.08644  1.0000
  C   C165      1.0  0.62420  0.83678  0.00946  1.0000
  H   H85       1.0  0.62377  0.83831  0.08246  1.0000
  C   C166      1.0  0.58197  0.87649  0.28764  1.0000
  H   H86       1.0  0.58466  0.88188  0.22411  1.0000
  N   N27       1.0  0.28512  0.84872  0.26510  1.0000
  C   C167      1.0  0.26521  0.82998  0.23991  1.0000
  C   C168      1.0  0.24858  0.81734  0.30594  1.0000
  H   H87       1.0  0.26292  0.82498  0.17402  1.0000
  C   C169      1.0  0.30442  0.87912  0.01107  1.0000
  H   H88       1.0  0.30331  0.87750  0.08427  1.0000
  C   C170      1.0  0.26749  0.87921  0.00729  1.0000
  H   H89       1.0  0.26598  0.87718  0.08030  1.0000
  C   C171      1.0  0.22821  0.79762  0.28493  1.0000
  H   H90       1.0  0.22284  0.79505  0.22136  1.0000
  N   N28       1.0  0.82058  0.60308  0.26495  1.0000
  C   C172      1.0  0.80162  0.60390  0.24008  1.0000
  C   C173      1.0  0.78883  0.60752  0.30644  1.0000
  H   H91       1.0  0.79659  0.60122  0.17416  1.0000
  C   C174      1.0  0.85054  0.61348  0.01162  1.0000
  H   H92       1.0  0.84889  0.61290  0.08480  1.0000
  C   C175      1.0  0.85059  0.65049  0.00860  1.0000
  H   H93       1.0  0.84852  0.64987  0.08157  1.0000
  C   C176      1.0  0.76890  0.60781  0.28575  1.0000
  H   H94       1.0  0.76625  0.61070  0.22238  1.0000
  N   N29       1.0  0.50155  0.30968  0.26713  1.0000
  C   C177      1.0  0.50073  0.28992  0.24226  1.0000
  C   C178      1.0  0.49713  0.27344  0.30865  1.0000
  H   H95       1.0  0.50338  0.28764  0.17633  1.0000
  C   C179      1.0  0.49111  0.32920  0.01358  1.0000
  H   H96       1.0  0.49172  0.32810  0.08676  1.0000
  C   C180      1.0  0.45419  0.29215  0.01085  1.0000
  H   H97       1.0  0.45484  0.29065  0.08383  1.0000
  C   C181      1.0  0.49683  0.25324  0.28793  1.0000
  H   H98       1.0  0.49392  0.24777  0.22457  1.0000
  N   N30       1.0  0.79488  0.28407  0.26513  1.0000
  C   C182      1.0  0.81462  0.30301  0.23998  1.0000
  C   C183      1.0  0.83117  0.31583  0.30612  1.0000
  H   H99       1.0  0.81681  0.30804  0.17406  1.0000
  C   C184      1.0  0.77578  0.25406  0.01171  1.0000
  H   H100      1.0  0.77696  0.25569  0.08488  1.0000
  C   C185      1.0  0.81282  0.25418  0.00822  1.0000
  H   H101      1.0  0.81439  0.25624  0.08119  1.0000
  C   C186      1.0  0.85135  0.33575  0.28516  1.0000
  H   H102      1.0  0.85676  0.33838  0.22172  1.0000
  C   C187      1.0  0.10745  0.66021  0.40885  1.0000
  C   C188      1.0  0.12622  0.68273  0.41175  1.0000
  C   C189      1.0  0.19452  0.74466  0.40088  1.0000
  C   C190      1.0  0.17468  0.72283  0.39887  1.0000
  C   C191      1.0  0.11098  0.54634  0.40013  1.0000
  C   C192      1.0  0.12971  0.54252  0.39828  1.0000
  C   C193      1.0  0.16116  0.52269  0.38181  1.0000
  C   C194      1.0  0.18066  0.52010  0.38069  1.0000
  C   C195      1.0  0.95201  0.45146  0.41195  1.0000
  C   C196      1.0  0.97063  0.47406  0.40908  1.0000
  C   C197      1.0  0.90382  0.41091  0.39806  1.0000
  C   C198      1.0  0.88421  0.38892  0.40013  1.0000
  C   C199      1.0  0.96700  0.58753  0.40021  1.0000
  C   C200      1.0  0.94814  0.59114  0.39832  1.0000
  C   C201      1.0  0.89641  0.61257  0.38123  1.0000
  C   C202      1.0  0.91612  0.61035  0.38238  1.0000
  H   H103      1.0  0.89431  0.62187  0.43076  1.0000
  H   H104      1.0  0.92779  0.61826  0.43292  1.0000
  H   H105      1.0  0.93979  0.58968  0.45748  1.0000
  H   H106      1.0  0.97185  0.58373  0.46021  1.0000
  H   H107      1.0  0.97742  0.48255  0.46823  1.0000
  H   H108      1.0  0.94616  0.44406  0.47360  1.0000
  H   H109      1.0  0.10613  0.54998  0.46022  1.0000
  H   H110      1.0  0.13796  0.54368  0.45757  1.0000
  H   H111      1.0  0.18252  0.51048  0.42977  1.0000
  H   H112      1.0  0.14941  0.51473  0.43194  1.0000
  H   H113      1.0  0.17357  0.71074  0.44354  1.0000
  H   H114      1.0  0.20697  0.74782  0.44749  1.0000
  H   H115      1.0  0.13203  0.69012  0.47340  1.0000
  H   H116      1.0  0.10055  0.65176  0.46800  1.0000
  H   H117      1.0  0.90466  0.42294  0.44214  1.0000
  H   H118      1.0  0.87163  0.38559  0.44613  1.0000
  C   C203      1.0  0.44442  0.53928  0.41065  1.0000
  C   C204      1.0  0.42189  0.53552  0.41339  1.0000
  C   C205      1.0  0.35994  0.54186  0.40188  1.0000
  C   C206      1.0  0.38178  0.54387  0.40001  1.0000
  C   C207      1.0  0.55828  0.65663  0.40226  1.0000
  C   C208      1.0  0.56211  0.67919  0.40044  1.0000
  C   C209      1.0  0.58195  0.73051  0.38406  1.0000
  C   C210      1.0  0.58454  0.75259  0.38295  1.0000
  C   C211      1.0  0.65321  0.59252  0.41358  1.0000
  C   C212      1.0  0.63060  0.58853  0.41087  1.0000
  C   C213      1.0  0.69377  0.58493  0.39928  1.0000
  C   C214      1.0  0.71577  0.58730  0.40111  1.0000
  C   C215      1.0  0.51711  0.47148  0.40235  1.0000
  C   C216      1.0  0.51349  0.44901  0.40048  1.0000
  C   C217      1.0  0.49207  0.37587  0.38340  1.0000
  C   C218      1.0  0.49429  0.39781  0.38455  1.0000
  H   H119      1.0  0.48278  0.36441  0.43294  1.0000
  H   H120      1.0  0.48639  0.40150  0.43509  1.0000
  H   H121      1.0  0.51497  0.44205  0.45963  1.0000
  H   H122      1.0  0.52092  0.48005  0.46234  1.0000
  H   H123      1.0  0.62213  0.58673  0.47007  1.0000
  H   H124      1.0  0.66062  0.59397  0.47518  1.0000
  H   H125      1.0  0.55465  0.64807  0.46236  1.0000
  H   H126      1.0  0.56096  0.68622  0.45974  1.0000
  H   H127      1.0  0.59415  0.76400  0.43207  1.0000
  H   H128      1.0  0.58991  0.72664  0.43420  1.0000
  H   H129      1.0  0.39385  0.55481  0.44472  1.0000
  H   H130      1.0  0.35676  0.55112  0.44833  1.0000
  H   H131      1.0  0.41449  0.53388  0.47499  1.0000
  H   H132      1.0  0.45286  0.54078  0.46985  1.0000
  H   H133      1.0  0.68176  0.57365  0.44332  1.0000
  H   H134      1.0  0.71911  0.57798  0.44697  1.0000
  C   C219      1.0  0.56537  0.99715  0.41232  1.0000
  C   C220      1.0  0.56912  0.97838  0.41515  1.0000
  C   C221      1.0  0.56278  0.91010  0.40383  1.0000
  C   C222      1.0  0.56079  0.92993  0.40193  1.0000
  C   C223      1.0  0.44794  0.99358  0.40289  1.0000
  C   C224      1.0  0.42539  0.97487  0.40071  1.0000
  C   C225      1.0  0.37409  0.94343  0.38351  1.0000
  C   C226      1.0  0.35201  0.92393  0.38201  1.0000
  C   C227      1.0  0.51214  0.15267  0.41544  1.0000
  C   C228      1.0  0.51612  0.13405  0.41264  1.0000
  C   C229      1.0  0.51972  0.20084  0.40124  1.0000
  C   C230      1.0  0.51735  0.22046  0.40315  1.0000
  C   C231      1.0  0.63321  0.13772  0.40303  1.0000
  C   C232      1.0  0.65568  0.15657  0.40081  1.0000
  C   C233      1.0  0.72880  0.20830  0.38259  1.0000
  C   C234      1.0  0.70688  0.18859  0.38410  1.0000
  H   H135      1.0  0.74031  0.21044  0.43199  1.0000
  H   H136      1.0  0.70322  0.17697  0.43481  1.0000
  H   H137      1.0  0.66269  0.16499  0.45981  1.0000
  H   H138      1.0  0.62470  0.13292  0.46314  1.0000
  H   H139      1.0  0.51794  0.12730  0.47180  1.0000
  H   H140      1.0  0.51070  0.15855  0.47707  1.0000
  H   H141      1.0  0.45646  0.99839  0.46310  1.0000
  H   H142      1.0  0.41831  0.96656  0.45985  1.0000
  H   H143      1.0  0.34054  0.92203  0.43097  1.0000
  H   H144      1.0  0.37790  0.95514  0.43374  1.0000
  H   H145      1.0  0.54983  0.93100  0.44656  1.0000
  H   H146      1.0  0.55353  0.89761  0.45028  1.0000
  H   H147      1.0  0.57073  0.97253  0.47678  1.0000
  H   H148      1.0  0.56384  0.00400  0.47149  1.0000
  H   H149      1.0  0.53100  0.20004  0.44522  1.0000
  H   H150      1.0  0.52669  0.23307  0.44897  1.0000
  C   C235      1.0  0.24779  0.52532  0.35069  1.0000
  N   N31       1.0  0.27911  0.51996  0.39189  1.0000
  C   C236      1.0  0.25991  0.52033  0.41737  1.0000
  N   N32       1.0  0.25506  0.51670  0.50442  1.0000
  C   C237      1.0  0.23580  0.50476  0.54471  1.0000
  N   N33       1.0  0.23557  0.50409  0.63789  1.0000
  H   H151      1.0  0.22124  0.49611  0.51015  1.0000
  H   H152      1.0  0.23482  0.53517  0.65363  1.0000
  H   H153      1.0  0.20747  0.50999  0.66016  1.0000
  H   H154      1.0  0.23406  0.47173  0.64636  1.0000
  H   H155      1.0  0.20709  0.47020  0.65804  1.0000
  C   C238      1.0  0.22924  0.52833  0.36871  1.0000
  H   H156      1.0  0.22671  0.53163  0.43145  1.0000
  C   C239      1.0  0.57932  0.81454  0.35289  1.0000
  N   N34       1.0  0.58471  0.85118  0.39403  1.0000
  C   C240      1.0  0.58433  0.83158  0.41953  1.0000
  N   N35       1.0  0.58799  0.83027  0.50658  1.0000
  C   C241      1.0  0.59988  0.82286  0.54692  1.0000
  N   N36       1.0  0.60058  0.82322  0.64010  1.0000
  H   H157      1.0  0.60848  0.81693  0.51242  1.0000
  H   H158      1.0  0.56942  0.79147  0.65614  1.0000
  H   H159      1.0  0.59452  0.78916  0.66269  1.0000
  H   H160      1.0  0.63301  0.85398  0.64829  1.0000
  H   H161      1.0  0.63441  0.82845  0.66021  1.0000
  C   C242      1.0  0.57630  0.79295  0.37092  1.0000
  H   H162      1.0  0.57299  0.78704  0.43365  1.0000
  C   C243      1.0  0.29010  0.85682  0.35096  1.0000
  N   N37       1.0  0.25343  0.82548  0.39164  1.0000
  C   C244      1.0  0.27301  0.84466  0.41739  1.0000
  N   N38       1.0  0.27427  0.84948  0.50446  1.0000
  C   C245      1.0  0.28156  0.86872  0.54478  1.0000
  N   N39       1.0  0.28120  0.86894  0.63796  1.0000
  H   H163      1.0  0.28742  0.88329  0.51025  1.0000
  H   H164      1.0  0.31310  0.86981  0.65399  1.0000
  H   H165      1.0  0.31516  0.89711  0.66047  1.0000
  H   H166      1.0  0.25029  0.87032  0.64614  1.0000
  H   H167      1.0  0.27568  0.89734  0.65799  1.0000
  C   C246      1.0  0.31167  0.87537  0.36929  1.0000
  H   H168      1.0  0.31750  0.87786  0.43212  1.0000
  C   C247      1.0  0.82875  0.60620  0.35080  1.0000
  N   N40       1.0  0.79704  0.61080  0.39214  1.0000
  C   C248      1.0  0.81642  0.61074  0.41761  1.0000
  N   N41       1.0  0.82126  0.61425  0.50474  1.0000
  C   C249      1.0  0.84047  0.62623  0.54548  1.0000
  N   N42       1.0  0.84065  0.62670  0.63867  1.0000
  H   H169      1.0  0.85504  0.63505  0.51127  1.0000
  H   H170      1.0  0.84154  0.59567  0.65412  1.0000
  H   H171      1.0  0.86883  0.62091  0.66133  1.0000
  H   H172      1.0  0.84199  0.65897  0.64751  1.0000
  H   H173      1.0  0.86901  0.66061  0.65973  1.0000
  C   C250      1.0  0.84754  0.60353  0.36872  1.0000
  H   H174      1.0  0.85010  0.60005  0.43129  1.0000
  C   C251      1.0  0.49846  0.31463  0.35300  1.0000
  N   N43       1.0  0.49388  0.27827  0.39436  1.0000
  C   C252      1.0  0.49396  0.29769  0.41983  1.0000
  N   N44       1.0  0.49046  0.29892  0.50696  1.0000
  C   C253      1.0  0.47843  0.30606  0.54763  1.0000
  N   N45       1.0  0.47797  0.30569  0.64083  1.0000
  H   H175      1.0  0.46956  0.31178  0.51336  1.0000
  H   H176      1.0  0.50892  0.33767  0.65603  1.0000
  H   H177      1.0  0.48360  0.33958  0.66318  1.0000
  H   H178      1.0  0.44579  0.27467  0.64990  1.0000
  H   H179      1.0  0.44401  0.29997  0.66189  1.0000
  C   C254      1.0  0.50112  0.33607  0.37090  1.0000
  H   H180      1.0  0.50459  0.34202  0.43348  1.0000
  C   C255      1.0  0.79003  0.27592  0.35103  1.0000
  N   N46       1.0  0.82643  0.30765  0.39188  1.0000
  C   C256      1.0  0.80703  0.28828  0.41761  1.0000
  N   N47       1.0  0.80590  0.28345  0.50473  1.0000
  C   C257      1.0  0.79879  0.26424  0.54538  1.0000
  N   N48       1.0  0.79925  0.26405  0.63856  1.0000
  H   H181      1.0  0.79301  0.24969  0.51111  1.0000
  H   H182      1.0  0.76729  0.26301  0.65440  1.0000
  H   H183      1.0  0.76537  0.23577  0.66135  1.0000
  H   H184      1.0  0.83027  0.26285  0.64700  1.0000
  H   H185      1.0  0.80497  0.23577  0.65925  1.0000
  C   C258      1.0  0.76860  0.25715  0.36927  1.0000
  H   H186      1.0  0.76270  0.25466  0.43193  1.0000
