data_image0
_chemical_formula_structural       C3NC3NC5NC5NC36H26N4CNC2O2HCHCNC2O2HCHC16H16NC3O2HCHNC3O2HCH
_chemical_formula_sum              "C84 N12 H50 O8"
_cell_length_a       34.2478
_cell_length_b       34.2458
_cell_length_c       14.6928
_cell_angle_alpha    90
_cell_angle_beta     90
_cell_angle_gamma    90.0659

_space_group_name_H-M_alt    "P 1"
_space_group_IT_number       1

loop_
  _space_group_symop_operation_xyz
  'x, y, z'

loop_
  _atom_site_type_symbol
  _atom_site_label
  _atom_site_symmetry_multiplicity
  _atom_site_fract_x
  _atom_site_fract_y
  _atom_site_fract_z
  _atom_site_occupancy
  C   C1        1.0  0.93495  0.90881  0.33324  1.0000
  C   C2        1.0  0.90632  0.93720  0.33401  1.0000
  C   C3        1.0  0.92447  0.97378  0.33423  1.0000
  N   N1        1.0  0.96337  0.96608  0.33395  1.0000
  C   C4        1.0  0.97138  0.92725  0.33352  1.0000
  C   C5        1.0  0.00805  0.90757  0.33304  1.0000
  C   C6        1.0  0.04497  0.92665  0.33283  1.0000
  N   N2        1.0  0.05245  0.96547  0.33311  1.0000
  C   C7        1.0  0.09120  0.97327  0.33290  1.0000
  C   C8        1.0  0.10982  0.93700  0.33228  1.0000
  C   C9        1.0  0.08140  0.90835  0.33260  1.0000
  C   C10       1.0  0.10996  0.01035  0.33292  1.0000
  C   C11       1.0  0.08997  0.04683  0.33331  1.0000
  N   N3        1.0  0.05108  0.05451  0.33342  1.0000
  C   C12       1.0  0.04307  0.09334  0.33439  1.0000
  C   C13       1.0  0.07949  0.11179  0.33458  1.0000
  C   C14       1.0  0.10811  0.08341  0.33422  1.0000
  C   C15       1.0  0.00642  0.11302  0.33491  1.0000
  C   C16       1.0  0.96950  0.09397  0.33478  1.0000
  N   N4        1.0  0.96202  0.05515  0.33444  1.0000
  C   C17       1.0  0.92327  0.04736  0.33506  1.0000
  C   C18       1.0  0.90467  0.08364  0.33559  1.0000
  C   C19       1.0  0.93308  0.11229  0.33569  1.0000
  C   C20       1.0  0.90451  0.01028  0.33502  1.0000
  C   C21       1.0  0.86271  0.00983  0.33650  1.0000
  C   C22       1.0  0.77880  0.01057  0.33953  1.0000
  C   C23       1.0  0.79987  0.00680  0.25681  1.0000
  C   C24       1.0  0.84103  0.00648  0.25513  1.0000
  C   C25       1.0  0.73674  0.01115  0.34105  1.0000
  C   C26       1.0  0.71437  0.98680  0.28286  1.0000
  C   C27       1.0  0.67321  0.98722  0.28444  1.0000
  C   C28       1.0  0.65264  0.01221  0.34423  1.0000
  C   C29       1.0  0.00664  0.15481  0.33654  1.0000
  C   C30       1.0  0.00767  0.23870  0.33999  1.0000
  C   C31       1.0  0.00347  0.21773  0.25725  1.0000
  C   C32       1.0  0.00296  0.17657  0.25537  1.0000
  C   C33       1.0  0.00822  0.28076  0.34174  1.0000
  C   C34       1.0  0.00915  0.36485  0.34545  1.0000
  C   C35       1.0  0.98387  0.34426  0.28628  1.0000
  C   C36       1.0  0.98351  0.30310  0.28444  1.0000
  C   C37       1.0  0.15177  0.01090  0.33252  1.0000
  C   C38       1.0  0.17265  0.01630  0.25058  1.0000
  C   C39       1.0  0.21380  0.01698  0.25032  1.0000
  C   C40       1.0  0.23565  0.01221  0.33160  1.0000
  C   C41       1.0  0.27769  0.01273  0.33107  1.0000
  C   C42       1.0  0.36181  0.01348  0.32960  1.0000
  C   C43       1.0  0.34017  0.03904  0.27374  1.0000
  C   C44       1.0  0.29899  0.03883  0.27483  1.0000
  C   C45       1.0  0.00792  0.86576  0.33259  1.0000
  C   C46       1.0  0.01280  0.84481  0.25059  1.0000
  C   C47       1.0  0.00881  0.78186  0.33193  1.0000
  C   C48       1.0  0.01324  0.80365  0.25045  1.0000
  C   C49       1.0  0.00930  0.73981  0.33160  1.0000
  C   C50       1.0  0.03511  0.71851  0.27473  1.0000
  C   C51       1.0  0.03531  0.67734  0.27384  1.0000
  C   C52       1.0  0.01007  0.65568  0.33057  1.0000
  H   H1        1.0  0.05445  0.66317  0.23175  1.0000
  H   H2        1.0  0.05463  0.73283  0.23392  1.0000
  H   H3        1.0  0.01616  0.78972  0.18927  1.0000
  H   H4        1.0  0.01603  0.85942  0.19029  1.0000
  H   H5        1.0  0.92950  0.87947  0.33269  1.0000
  H   H6        1.0  0.87703  0.93153  0.33422  1.0000
  H   H7        1.0  0.98312  0.98599  0.33432  1.0000
  H   H8        1.0  0.03133  0.03460  0.33288  1.0000
  H   H9        1.0  0.08691  0.87903  0.33255  1.0000
  H   H10       1.0  0.13918  0.93174  0.33179  1.0000
  H   H11       1.0  0.15799  0.01965  0.19039  1.0000
  H   H12       1.0  0.22769  0.02019  0.18916  1.0000
  H   H13       1.0  0.13740  0.08912  0.33474  1.0000
  H   H14       1.0  0.08494  0.14113  0.33515  1.0000
  H   H15       1.0  0.87530  0.08890  0.33603  1.0000
  H   H16       1.0  0.92760  0.14161  0.33638  1.0000
  H   H17       1.0  0.00012  0.16256  0.19418  1.0000
  H   H18       1.0  0.00150  0.23226  0.19662  1.0000
  H   H19       1.0  0.96405  0.28958  0.24202  1.0000
  H   H20       1.0  0.96494  0.35910  0.24511  1.0000
  H   H21       1.0  0.85510  0.00411  0.19392  1.0000
  H   H22       1.0  0.78540  0.00519  0.19604  1.0000
  H   H23       1.0  0.65834  0.96855  0.24257  1.0000
  H   H24       1.0  0.72786  0.96759  0.23988  1.0000
  H   H25       1.0  0.28468  0.05856  0.23467  1.0000
  H   H26       1.0  0.35434  0.05838  0.23211  1.0000
  N   N5        1.0  0.61367  0.01305  0.35084  1.0000
  N   N6        1.0  0.01127  0.61667  0.32504  1.0000
  N   N7        1.0  0.40082  0.01470  0.32394  1.0000
  N   N8        1.0  0.01000  0.40382  0.35215  1.0000
  C   C53       1.0  0.00539  0.47040  0.31203  1.0000
  N   N9        1.0  0.00524  0.53829  0.27373  1.0000
  C   C54       1.0  0.00609  0.50043  0.24526  1.0000
  C   C55       1.0  0.00620  0.49337  0.15237  1.0000
  O   O1        1.0  0.03158  0.50966  0.10782  1.0000
  O   O2        1.0  0.97544  0.48740  0.11077  1.0000
  H   H27       1.0  0.95362  0.47850  0.13579  1.0000
  C   C56       1.0  0.00404  0.43057  0.29203  1.0000
  H   H28       1.0  0.99827  0.42242  0.22855  1.0000
  C   C57       1.0  0.54707  0.00863  0.31066  1.0000
  N   N10       1.0  0.47918  0.00848  0.27238  1.0000
  C   C58       1.0  0.51703  0.00929  0.24391  1.0000
  C   C59       1.0  0.52404  0.00939  0.15095  1.0000
  O   O3        1.0  0.50810  0.03484  0.10611  1.0000
  O   O4        1.0  0.53002  0.97842  0.11010  1.0000
  H   H29       1.0  0.53887  0.95668  0.13551  1.0000
  C   C60       1.0  0.58690  0.00730  0.29062  1.0000
  H   H30       1.0  0.59504  0.00174  0.22704  1.0000
  C   C61       1.0  0.84217  0.01345  0.41941  1.0000
  C   C62       1.0  0.80102  0.01378  0.42072  1.0000
  C   C63       1.0  0.67462  0.03611  0.40335  1.0000
  C   C64       1.0  0.71579  0.03583  0.40128  1.0000
  C   C65       1.0  0.01077  0.17526  0.41945  1.0000
  C   C66       1.0  0.01127  0.21640  0.42096  1.0000
  C   C67       1.0  0.03320  0.30173  0.40135  1.0000
  C   C68       1.0  0.03343  0.34290  0.40369  1.0000
  C   C69       1.0  0.21427  0.00676  0.41336  1.0000
  C   C70       1.0  0.17311  0.00616  0.41400  1.0000
  C   C71       1.0  0.29969  0.98683  0.38620  1.0000
  C   C72       1.0  0.34085  0.98710  0.38544  1.0000
  C   C73       1.0  0.00344  0.84447  0.41426  1.0000
  C   C74       1.0  0.00383  0.80331  0.41374  1.0000
  C   C75       1.0  0.98400  0.67663  0.38706  1.0000
  C   C76       1.0  0.98373  0.71780  0.38762  1.0000
  H   H31       1.0  0.96443  0.66210  0.42723  1.0000
  H   H32       1.0  0.96372  0.73158  0.42808  1.0000
  H   H33       1.0  0.00127  0.78912  0.47470  1.0000
  H   H34       1.0  0.00012  0.85883  0.47484  1.0000
  H   H35       1.0  0.15880  0.00238  0.47451  1.0000
  H   H36       1.0  0.22850  0.00393  0.47418  1.0000
  H   H37       1.0  0.01334  0.16028  0.47944  1.0000
  H   H38       1.0  0.01356  0.22995  0.48275  1.0000
  H   H39       1.0  0.05190  0.35684  0.44781  1.0000
  H   H40       1.0  0.05208  0.28720  0.44326  1.0000
  H   H41       1.0  0.73034  0.05446  0.44383  1.0000
  H   H42       1.0  0.66070  0.05435  0.44796  1.0000
  H   H43       1.0  0.78741  0.01579  0.48249  1.0000
  H   H44       1.0  0.85708  0.01588  0.47953  1.0000
  H   H45       1.0  0.28591  0.96662  0.42617  1.0000
  H   H46       1.0  0.35538  0.96732  0.42496  1.0000
  N   N11       1.0  0.00479  0.48221  0.40047  1.0000
  C   C77       1.0  0.00447  0.52005  0.42918  1.0000
  C   C78       1.0  0.00451  0.55003  0.36219  1.0000
  C   C79       1.0  0.00426  0.52719  0.52223  1.0000
  O   O5        1.0  0.98377  0.50665  0.57073  1.0000
  O   O6        1.0  0.03272  0.54188  0.56124  1.0000
  H   H47       1.0  0.05195  0.55460  0.53386  1.0000
  C   C80       1.0  0.00138  0.58974  0.38185  1.0000
  H   H48       1.0  0.99123  0.59754  0.44250  1.0000
  N   N12       1.0  0.53526  0.00805  0.39911  1.0000
  C   C81       1.0  0.49742  0.00773  0.42783  1.0000
  C   C82       1.0  0.46745  0.00779  0.36085  1.0000
  C   C83       1.0  0.49029  0.00754  0.52088  1.0000
  O   O7        1.0  0.51080  0.98711  0.56946  1.0000
  O   O8        1.0  0.47554  0.03595  0.55985  1.0000
  H   H49       1.0  0.46282  0.05515  0.53241  1.0000
  C   C84       1.0  0.42774  0.00460  0.38051  1.0000
  H   H50       1.0  0.41994  0.99425  0.44099  1.0000
