data_image0
_chemical_formula_structural       C4NC2NHNHC4NC2NHNHC4NC2NHNHC2H2CH2C2H2CH2C2H2CH2C2H2CH2C2H2CH2C2H2CH2C24H15C24H15C24H15C24H15C24H15C24H15C2H2CH3C2H2CH3C2H2CH3C4NC2NHNH2C4NC2NHNH2C4NC2NHNH2C4NC2NHNH2C4NC2NHNH2C4NC2NHNH2
_chemical_formula_sum              "C225 N27 H153"
_cell_length_a       61.6579
_cell_length_b       61.6578
_cell_length_c       15.0033
_cell_angle_alpha    90
_cell_angle_beta     90
_cell_angle_gamma    120

_space_group_name_H-M_alt    "P 1"
_space_group_IT_number       1

loop_
  _space_group_symop_operation_xyz
  'x, y, z'

loop_
  _atom_site_type_symbol
  _atom_site_label
  _atom_site_symmetry_multiplicity
  _atom_site_fract_x
  _atom_site_fract_y
  _atom_site_fract_z
  _atom_site_occupancy
  C   C1        1.0  0.97284  0.48790  0.31739  1.0000
  C   C2        1.0  0.98666  0.48776  0.24179  1.0000
  C   C3        1.0  0.01336  0.50101  0.24215  1.0000
  C   C4        1.0  0.02698  0.51442  0.31889  1.0000
  N   N1        1.0  0.02519  0.50038  0.16634  1.0000
  C   C5        1.0  0.01318  0.48758  0.09190  1.0000
  C   C6        1.0  0.98684  0.47422  0.09125  1.0000
  N   N2        1.0  0.97496  0.47513  0.16617  1.0000
  H   H1        1.0  0.02328  0.48745  0.03817  1.0000
  N   N3        1.0  0.97327  0.45906  0.01800  1.0000
  H   H2        1.0  0.95514  0.44678  0.03679  1.0000
  C   C7        1.0  0.51183  0.48490  0.31737  1.0000
  C   C8        1.0  0.51196  0.49884  0.24177  1.0000
  C   C9        1.0  0.49871  0.51229  0.24213  1.0000
  C   C10       1.0  0.48530  0.51251  0.31888  1.0000
  N   N4        1.0  0.49933  0.52475  0.16632  1.0000
  C   C11       1.0  0.51213  0.52554  0.09187  1.0000
  C   C12       1.0  0.52550  0.51257  0.09123  1.0000
  N   N5        1.0  0.52460  0.49979  0.16616  1.0000
  H   H3        1.0  0.51228  0.53579  0.03817  1.0000
  N   N6        1.0  0.54067  0.51417  0.01799  1.0000
  H   H4        1.0  0.55295  0.50833  0.03679  1.0000
  C   C13       1.0  0.51482  0.02687  0.31734  1.0000
  C   C14       1.0  0.50087  0.01306  0.24173  1.0000
  C   C15       1.0  0.48743  0.98636  0.24207  1.0000
  C   C16       1.0  0.48722  0.97273  0.31880  1.0000
  N   N7        1.0  0.47497  0.97453  0.16626  1.0000
  C   C17       1.0  0.47418  0.98654  0.09182  1.0000
  C   C18       1.0  0.48714  0.01288  0.09121  1.0000
  N   N8        1.0  0.49993  0.02476  0.16613  1.0000
  H   H5        1.0  0.46394  0.97644  0.03809  1.0000
  N   N9        1.0  0.48557  0.02645  0.01794  1.0000
  H   H6        1.0  0.49140  0.04458  0.03673  1.0000
  C   C19       1.0  0.26955  0.51889  0.27491  1.0000
  C   C20       1.0  0.24708  0.51948  0.27853  1.0000
  H   H7        1.0  0.23622  0.51486  0.22238  1.0000
  H   H8        1.0  0.27432  0.51390  0.21615  1.0000
  C   C21       1.0  0.23769  0.54323  0.02993  1.0000
  H   H9        1.0  0.23993  0.52766  0.05296  1.0000
  H   H10       1.0  0.23384  0.55151  0.08755  1.0000
  C   C22       1.0  0.48080  0.75056  0.27505  1.0000
  C   C23       1.0  0.48026  0.72752  0.27880  1.0000
  H   H11       1.0  0.48481  0.72124  0.22260  1.0000
  H   H12       1.0  0.48581  0.76030  0.21626  1.0000
  C   C24       1.0  0.45647  0.69445  0.03021  1.0000
  H   H13       1.0  0.47206  0.71226  0.05320  1.0000
  H   H14       1.0  0.44819  0.68234  0.08787  1.0000
  C   C25       1.0  0.24916  0.73015  0.27515  1.0000
  C   C26       1.0  0.27221  0.75265  0.27881  1.0000
  H   H15       1.0  0.27845  0.76346  0.22258  1.0000
  H   H16       1.0  0.23942  0.72540  0.21635  1.0000
  C   C27       1.0  0.30533  0.76205  0.03017  1.0000
  H   H17       1.0  0.28752  0.75983  0.05316  1.0000
  H   H18       1.0  0.31744  0.76589  0.08781  1.0000
  C   C28       1.0  0.72769  0.48073  0.27912  1.0000
  C   C29       1.0  0.75059  0.48096  0.27755  1.0000
  H   H19       1.0  0.76070  0.48586  0.21956  1.0000
  H   H20       1.0  0.72198  0.48558  0.22214  1.0000
  C   C30       1.0  0.76589  0.45689  0.02396  1.0000
  H   H21       1.0  0.76324  0.47186  0.05100  1.0000
  H   H22       1.0  0.77077  0.44852  0.07870  1.0000
  C   C31       1.0  0.51904  0.24692  0.27928  1.0000
  C   C32       1.0  0.51884  0.26960  0.27763  1.0000
  H   H23       1.0  0.51392  0.27479  0.21962  1.0000
  H   H24       1.0  0.51420  0.23636  0.22231  1.0000
  C   C33       1.0  0.54277  0.30898  0.02403  1.0000
  H   H25       1.0  0.52779  0.29137  0.05104  1.0000
  H   H26       1.0  0.55113  0.32223  0.07877  1.0000
  C   C34       1.0  0.75280  0.27205  0.27894  1.0000
  C   C35       1.0  0.73013  0.24915  0.27738  1.0000
  H   H27       1.0  0.72495  0.23902  0.21942  1.0000
  H   H28       1.0  0.76339  0.27774  0.22206  1.0000
  C   C36       1.0  0.69079  0.23383  0.02379  1.0000
  H   H29       1.0  0.70840  0.23648  0.05080  1.0000
  H   H30       1.0  0.67753  0.22893  0.07853  1.0000
  C   C37       1.0  0.17462  0.60864  0.33114  1.0000
  C   C38       1.0  0.14821  0.59468  0.33017  1.0000
  C   C39       1.0  0.13481  0.56815  0.33743  1.0000
  C   C40       1.0  0.14908  0.55589  0.34486  1.0000
  C   C41       1.0  0.17557  0.56919  0.34327  1.0000
  C   C42       1.0  0.18789  0.59559  0.33848  1.0000
  C   C43       1.0  0.10784  0.55435  0.33453  1.0000
  C   C44       1.0  0.09343  0.56453  0.36924  1.0000
  C   C45       1.0  0.06716  0.55167  0.36279  1.0000
  C   C46       1.0  0.05384  0.52759  0.32370  1.0000
  C   C47       1.0  0.06807  0.51695  0.29187  1.0000
  C   C48       1.0  0.09441  0.53019  0.29570  1.0000
  C   C49       1.0  0.18803  0.63526  0.32548  1.0000
  C   C50       1.0  0.18412  0.65002  0.38857  1.0000
  C   C51       1.0  0.20056  0.67608  0.39311  1.0000
  C   C52       1.0  0.22110  0.68808  0.33397  1.0000
  C   C53       1.0  0.22404  0.67346  0.26756  1.0000
  C   C54       1.0  0.20777  0.64747  0.26340  1.0000
  C   C55       1.0  0.18996  0.55684  0.34264  1.0000
  C   C56       1.0  0.21010  0.56468  0.28193  1.0000
  C   C57       1.0  0.22607  0.55463  0.28504  1.0000
  C   C58       1.0  0.22215  0.53585  0.34738  1.0000
  C   C59       1.0  0.20172  0.52745  0.40688  1.0000
  C   C60       1.0  0.18571  0.53765  0.40403  1.0000
  H   H31       1.0  0.19824  0.68603  0.44310  1.0000
  H   H32       1.0  0.17053  0.64169  0.43624  1.0000
  H   H33       1.0  0.23914  0.68130  0.22547  1.0000
  H   H34       1.0  0.21131  0.63734  0.21749  1.0000
  H   H35       1.0  0.21386  0.57843  0.23610  1.0000
  H   H36       1.0  0.24136  0.56207  0.24395  1.0000
  H   H37       1.0  0.17172  0.53188  0.45035  1.0000
  H   H38       1.0  0.19878  0.51433  0.45436  1.0000
  H   H39       1.0  0.10362  0.52192  0.26805  1.0000
  H   H40       1.0  0.05939  0.49927  0.26566  1.0000
  H   H41       1.0  0.05784  0.56029  0.38677  1.0000
  H   H42       1.0  0.10187  0.58156  0.40037  1.0000
  H   H43       1.0  0.13875  0.60419  0.32087  1.0000
  H   H44       1.0  0.20707  0.60562  0.34111  1.0000
  H   H45       1.0  0.14012  0.53681  0.35006  1.0000
  C   C61       1.0  0.39107  0.56591  0.33113  1.0000
  C   C62       1.0  0.40504  0.55347  0.33015  1.0000
  C   C63       1.0  0.43157  0.56661  0.33745  1.0000
  C   C64       1.0  0.44382  0.59313  0.34492  1.0000
  C   C65       1.0  0.43052  0.60631  0.34333  1.0000
  C   C66       1.0  0.40412  0.59223  0.33851  1.0000
  C   C67       1.0  0.44536  0.55343  0.33455  1.0000
  C   C68       1.0  0.43519  0.52884  0.36925  1.0000
  C   C69       1.0  0.44805  0.51543  0.36280  1.0000
  C   C70       1.0  0.47213  0.52619  0.32368  1.0000
  C   C71       1.0  0.48276  0.55106  0.29188  1.0000
  C   C72       1.0  0.46953  0.56416  0.29572  1.0000
  C   C73       1.0  0.36446  0.55270  0.32541  1.0000
  C   C74       1.0  0.34968  0.53403  0.38848  1.0000
  C   C75       1.0  0.32361  0.52439  0.39293  1.0000
  C   C76       1.0  0.31164  0.53295  0.33379  1.0000
  C   C77       1.0  0.32625  0.55049  0.26736  1.0000
  C   C78       1.0  0.35225  0.56023  0.26330  1.0000
  C   C79       1.0  0.44286  0.63306  0.34275  1.0000
  C   C80       1.0  0.43502  0.64536  0.28206  1.0000
  C   C81       1.0  0.44504  0.67137  0.28532  1.0000
  C   C82       1.0  0.46383  0.68622  0.34763  1.0000
  C   C83       1.0  0.47227  0.67420  0.40702  1.0000
  C   C84       1.0  0.46204  0.64799  0.40419  1.0000
  H   H46       1.0  0.31365  0.51213  0.44296  1.0000
  H   H47       1.0  0.35800  0.52876  0.43619  1.0000
  H   H48       1.0  0.31842  0.55777  0.22532  1.0000
  H   H49       1.0  0.36239  0.57391  0.21742  1.0000
  H   H50       1.0  0.42125  0.63537  0.23629  1.0000
  H   H51       1.0  0.43761  0.67923  0.24423  1.0000
  H   H52       1.0  0.46783  0.63976  0.45041  1.0000
  H   H53       1.0  0.48538  0.68437  0.45452  1.0000
  H   H54       1.0  0.47779  0.58165  0.26807  1.0000
  H   H55       1.0  0.50044  0.56006  0.26565  1.0000
  H   H56       1.0  0.43943  0.49749  0.38676  1.0000
  H   H57       1.0  0.41815  0.52025  0.40038  1.0000
  H   H58       1.0  0.39553  0.53449  0.32083  1.0000
  H   H59       1.0  0.39408  0.60138  0.34116  1.0000
  H   H60       1.0  0.46290  0.60326  0.35012  1.0000
  C   C85       1.0  0.43382  0.82510  0.33107  1.0000
  C   C86       1.0  0.44626  0.85150  0.33013  1.0000
  C   C87       1.0  0.43313  0.86490  0.33736  1.0000
  C   C88       1.0  0.40661  0.85063  0.34482  1.0000
  C   C89       1.0  0.39343  0.82415  0.34326  1.0000
  C   C90       1.0  0.40750  0.81182  0.33844  1.0000
  C   C91       1.0  0.44631  0.89187  0.33444  1.0000
  C   C92       1.0  0.47090  0.90629  0.36911  1.0000
  C   C93       1.0  0.48430  0.93256  0.36267  1.0000
  C   C94       1.0  0.47354  0.94587  0.32358  1.0000
  C   C95       1.0  0.44867  0.93164  0.29176  1.0000
  C   C96       1.0  0.43558  0.90530  0.29558  1.0000
  C   C97       1.0  0.44703  0.81169  0.32541  1.0000
  C   C98       1.0  0.46572  0.81562  0.38843  1.0000
  C   C99       1.0  0.47534  0.79917  0.39298  1.0000
  C   C100      1.0  0.46683  0.77865  0.33379  1.0000
  C   C101      1.0  0.44924  0.77569  0.26746  1.0000
  C   C102      1.0  0.43951  0.79196  0.26329  1.0000
  C   C103      1.0  0.36668  0.80975  0.34269  1.0000
  C   C104      1.0  0.35437  0.78961  0.28199  1.0000
  C   C105      1.0  0.32835  0.77365  0.28518  1.0000
  C   C106      1.0  0.31350  0.77757  0.34755  1.0000
  C   C107      1.0  0.32554  0.79802  0.40702  1.0000
  C   C108      1.0  0.35176  0.81399  0.40418  1.0000
  H   H61       1.0  0.48765  0.80152  0.44288  1.0000
  H   H62       1.0  0.47099  0.82922  0.43610  1.0000
  H   H63       1.0  0.44195  0.76057  0.22548  1.0000
  H   H64       1.0  0.42579  0.78837  0.21753  1.0000
  H   H65       1.0  0.36435  0.78582  0.23622  1.0000
  H   H66       1.0  0.32049  0.75833  0.24420  1.0000
  H   H67       1.0  0.35998  0.82802  0.45036  1.0000
  H   H68       1.0  0.31538  0.80096  0.45451  1.0000
  H   H69       1.0  0.41808  0.89608  0.26799  1.0000
  H   H70       1.0  0.43966  0.94032  0.26557  1.0000
  H   H71       1.0  0.50224  0.94188  0.38664  1.0000
  H   H72       1.0  0.47949  0.89785  0.40026  1.0000
  H   H73       1.0  0.46524  0.86097  0.32074  1.0000
  H   H74       1.0  0.39835  0.79265  0.34109  1.0000
  H   H75       1.0  0.39648  0.85959  0.35002  1.0000
  C   C109      1.0  0.82479  0.39345  0.34207  1.0000
  C   C110      1.0  0.85122  0.40712  0.34348  1.0000
  C   C111      1.0  0.86493  0.43367  0.33667  1.0000
  C   C112      1.0  0.85093  0.44626  0.33198  1.0000
  C   C113      1.0  0.82447  0.43326  0.33387  1.0000
  C   C114      1.0  0.81181  0.40688  0.33910  1.0000
  C   C115      1.0  0.89191  0.44721  0.33207  1.0000
  C   C116      1.0  0.90539  0.43657  0.29290  1.0000
  C   C117      1.0  0.93171  0.44961  0.28934  1.0000
  C   C118      1.0  0.94595  0.47447  0.32113  1.0000
  C   C119      1.0  0.93260  0.48529  0.35965  1.0000
  C   C120      1.0  0.90631  0.47188  0.36609  1.0000
  C   C121      1.0  0.81108  0.36678  0.33983  1.0000
  C   C122      1.0  0.81432  0.35212  0.40523  1.0000
  C   C123      1.0  0.79831  0.32594  0.40793  1.0000
  C   C124      1.0  0.77887  0.31370  0.34463  1.0000
  C   C125      1.0  0.77653  0.32830  0.27666  1.0000
  C   C126      1.0  0.79239  0.35437  0.27421  1.0000
  C   C127      1.0  0.81040  0.44589  0.33013  1.0000
  C   C128      1.0  0.78962  0.43728  0.27203  1.0000
  C   C129      1.0  0.77332  0.44694  0.27691  1.0000
  C   C130      1.0  0.77744  0.46585  0.33903  1.0000
  C   C131      1.0  0.79861  0.47512  0.39534  1.0000
  C   C132      1.0  0.81499  0.46540  0.39045  1.0000
  H   H76       1.0  0.80030  0.31597  0.45865  1.0000
  H   H77       1.0  0.82737  0.36053  0.45461  1.0000
  H   H78       1.0  0.76223  0.32033  0.23130  1.0000
  H   H79       1.0  0.78946  0.36433  0.22580  1.0000
  H   H80       1.0  0.78551  0.42305  0.22797  1.0000
  H   H81       1.0  0.75757  0.43899  0.23798  1.0000
  H   H82       1.0  0.82936  0.47155  0.43540  1.0000
  H   H83       1.0  0.80168  0.48829  0.44276  1.0000
  H   H84       1.0  0.89787  0.48046  0.39722  1.0000
  H   H85       1.0  0.94194  0.50322  0.38363  1.0000
  H   H86       1.0  0.94035  0.44050  0.26377  1.0000
  H   H87       1.0  0.89624  0.41907  0.26532  1.0000
  H   H88       1.0  0.86049  0.39729  0.34776  1.0000
  H   H89       1.0  0.79263  0.39715  0.34175  1.0000
  H   H90       1.0  0.86000  0.46526  0.32357  1.0000
  C   C133      1.0  0.60627  0.43128  0.34199  1.0000
  C   C134      1.0  0.59261  0.44404  0.34341  1.0000
  C   C135      1.0  0.56606  0.43121  0.33659  1.0000
  C   C136      1.0  0.55346  0.40462  0.33189  1.0000
  C   C137      1.0  0.56646  0.39116  0.33375  1.0000
  C   C138      1.0  0.59284  0.40488  0.33899  1.0000
  C   C139      1.0  0.55252  0.44466  0.33201  1.0000
  C   C140      1.0  0.56317  0.46879  0.29286  1.0000
  C   C141      1.0  0.55012  0.48206  0.28932  1.0000
  C   C142      1.0  0.52526  0.47144  0.32110  1.0000
  C   C143      1.0  0.51444  0.44727  0.35961  1.0000
  C   C144      1.0  0.52785  0.43439  0.36602  1.0000
  C   C145      1.0  0.63295  0.44424  0.33983  1.0000
  C   C146      1.0  0.64760  0.46214  0.40524  1.0000
  C   C147      1.0  0.67378  0.47231  0.40799  1.0000
  C   C148      1.0  0.68603  0.46512  0.34474  1.0000
  C   C149      1.0  0.67143  0.44814  0.27685  1.0000
  C   C150      1.0  0.64537  0.43797  0.27425  1.0000
  C   C151      1.0  0.55383  0.36446  0.33001  1.0000
  C   C152      1.0  0.56243  0.35229  0.27190  1.0000
  C   C153      1.0  0.55277  0.32632  0.27686  1.0000
  C   C154      1.0  0.53385  0.31153  0.33895  1.0000
  C   C155      1.0  0.52459  0.32345  0.39523  1.0000
  C   C156      1.0  0.53433  0.34955  0.39039  1.0000
  H   H91       1.0  0.68373  0.48428  0.45869  1.0000
  H   H92       1.0  0.63918  0.46678  0.45458  1.0000
  H   H93       1.0  0.67942  0.44186  0.23139  1.0000
  H   H94       1.0  0.63541  0.42507  0.22581  1.0000
  H   H95       1.0  0.57666  0.36240  0.22786  1.0000
  H   H96       1.0  0.56073  0.31853  0.23797  1.0000
  H   H97       1.0  0.52819  0.35778  0.43534  1.0000
  H   H98       1.0  0.51147  0.31336  0.44280  1.0000
  H   H99       1.0  0.51927  0.41736  0.39717  1.0000
  H   H100      1.0  0.49651  0.43867  0.38360  1.0000
  H   H101      1.0  0.55923  0.49981  0.26374  1.0000
  H   H102      1.0  0.58066  0.47713  0.26528  1.0000
  H   H103      1.0  0.60244  0.46315  0.34770  1.0000
  H   H104      1.0  0.60257  0.39542  0.34164  1.0000
  H   H105      1.0  0.53446  0.39470  0.32345  1.0000
  C   C157      1.0  0.56845  0.17493  0.34211  1.0000
  C   C158      1.0  0.55569  0.14850  0.34351  1.0000
  C   C159      1.0  0.56851  0.13478  0.33667  1.0000
  C   C160      1.0  0.59510  0.14877  0.33193  1.0000
  C   C161      1.0  0.60857  0.17523  0.33380  1.0000
  C   C162      1.0  0.59486  0.18790  0.33909  1.0000
  C   C163      1.0  0.55506  0.10780  0.33207  1.0000
  C   C164      1.0  0.53094  0.09432  0.29290  1.0000
  C   C165      1.0  0.51766  0.06800  0.28935  1.0000
  C   C166      1.0  0.52828  0.05376  0.32109  1.0000
  C   C167      1.0  0.55244  0.06711  0.35961  1.0000
  C   C168      1.0  0.56533  0.09340  0.36605  1.0000
  C   C169      1.0  0.55550  0.18866  0.33997  1.0000
  C   C170      1.0  0.53760  0.18540  0.40538  1.0000
  C   C171      1.0  0.52743  0.20142  0.40816  1.0000
  C   C172      1.0  0.53462  0.22086  0.34492  1.0000
  C   C173      1.0  0.55161  0.22325  0.27706  1.0000
  C   C174      1.0  0.56180  0.20738  0.27449  1.0000
  C   C175      1.0  0.63527  0.18929  0.32999  1.0000
  C   C176      1.0  0.64742  0.21005  0.27185  1.0000
  C   C177      1.0  0.67339  0.22635  0.27666  1.0000
  C   C178      1.0  0.68818  0.22227  0.33887  1.0000
  C   C179      1.0  0.67629  0.20111  0.39524  1.0000
  C   C180      1.0  0.65019  0.18473  0.39039  1.0000
  H   H106      1.0  0.51546  0.19940  0.45887  1.0000
  H   H107      1.0  0.53295  0.17233  0.45469  1.0000
  H   H108      1.0  0.55790  0.23753  0.23160  1.0000
  H   H109      1.0  0.57467  0.21030  0.22597  1.0000
  H   H110      1.0  0.63730  0.21416  0.22782  1.0000
  H   H111      1.0  0.68117  0.24212  0.23780  1.0000
  H   H112      1.0  0.64197  0.17036  0.43535  1.0000
  H   H113      1.0  0.68640  0.19807  0.44270  1.0000
  H   H114      1.0  0.58236  0.10184  0.39721  1.0000
  H   H115      1.0  0.56105  0.05777  0.38358  1.0000
  H   H116      1.0  0.49991  0.05936  0.26376  1.0000
  H   H117      1.0  0.52259  0.10348  0.26537  1.0000
  H   H118      1.0  0.53658  0.13924  0.34782  1.0000
  H   H119      1.0  0.60432  0.20709  0.34175  1.0000
  H   H120      1.0  0.60502  0.13969  0.32346  1.0000
  C   C181      1.0  0.01299  0.51448  0.39355  1.0000
  C   C182      1.0  0.98671  0.50186  0.39231  1.0000
  H   H121      1.0  0.97773  0.50248  0.44868  1.0000
  H   H122      1.0  0.02182  0.52343  0.45116  1.0000
  C   C183      1.0  0.97247  0.47352  0.60743  1.0000
  H   H123      1.0  0.99136  0.48609  0.58281  1.0000
  H   H124      1.0  0.96358  0.48448  0.62481  1.0000
  H   H125      1.0  0.96177  0.46063  0.55369  1.0000
  C   C184      1.0  0.48524  0.49845  0.39353  1.0000
  C   C185      1.0  0.49787  0.48480  0.39230  1.0000
  H   H126      1.0  0.49726  0.47520  0.44866  1.0000
  H   H127      1.0  0.47630  0.49834  0.45116  1.0000
  C   C186      1.0  0.52623  0.49892  0.60740  1.0000
  H   H128      1.0  0.51365  0.50524  0.58277  1.0000
  H   H129      1.0  0.51526  0.47907  0.62476  1.0000
  H   H130      1.0  0.53912  0.50111  0.55367  1.0000
  C   C187      1.0  0.50127  0.98672  0.39346  1.0000
  C   C188      1.0  0.51492  0.01300  0.39226  1.0000
  H   H131      1.0  0.52452  0.02198  0.44862  1.0000
  H   H132      1.0  0.50138  0.97789  0.45108  1.0000
  C   C189      1.0  0.50084  0.02727  0.60743  1.0000
  H   H133      1.0  0.49453  0.00837  0.58281  1.0000
  H   H134      1.0  0.52069  0.03615  0.62488  1.0000
  H   H135      1.0  0.49867  0.03797  0.55367  1.0000
  C   C190      1.0  0.24068  0.52859  0.35469  1.0000
  C   C191      1.0  0.25685  0.53587  0.42944  1.0000
  C   C192      1.0  0.27964  0.53534  0.42599  1.0000
  C   C193      1.0  0.28651  0.52747  0.34731  1.0000
  N   N10       1.0  0.29519  0.54433  0.49790  1.0000
  C   C194      1.0  0.28985  0.55307  0.57278  1.0000
  C   C195      1.0  0.26727  0.55345  0.57659  1.0000
  N   N11       1.0  0.25201  0.54519  0.50424  1.0000
  H   H136      1.0  0.30222  0.55940  0.62472  1.0000
  N   N12       1.0  0.26091  0.56244  0.65270  1.0000
  H   H137      1.0  0.25866  0.57720  0.63387  1.0000
  H   H138      1.0  0.22156  0.53605  0.65184  1.0000
  C   C196      1.0  0.47112  0.71202  0.35498  1.0000
  C   C197      1.0  0.46384  0.72092  0.42967  1.0000
  C   C198      1.0  0.46439  0.74426  0.42616  1.0000
  C   C199      1.0  0.47227  0.75898  0.34744  1.0000
  N   N13       1.0  0.45542  0.75084  0.49804  1.0000
  C   C200      1.0  0.44669  0.73678  0.57297  1.0000
  C   C201      1.0  0.44627  0.71381  0.57681  1.0000
  N   N14       1.0  0.45452  0.70678  0.50448  1.0000
  H   H139      1.0  0.44036  0.74284  0.62486  1.0000
  N   N15       1.0  0.43728  0.69847  0.65296  1.0000
  H   H140      1.0  0.42250  0.68146  0.63416  1.0000
  H   H141      1.0  0.46363  0.68548  0.65216  1.0000
  C   C202      1.0  0.28771  0.75906  0.35499  1.0000
  C   C203      1.0  0.27881  0.74288  0.42971  1.0000
  C   C204      1.0  0.25548  0.72009  0.42625  1.0000
  C   C205      1.0  0.24073  0.71320  0.34758  1.0000
  N   N16       1.0  0.24892  0.70455  0.49818  1.0000
  C   C206      1.0  0.26298  0.70989  0.57307  1.0000
  C   C207      1.0  0.28595  0.73245  0.57687  1.0000
  N   N17       1.0  0.29296  0.74772  0.50450  1.0000
  H   H142      1.0  0.25693  0.69752  0.62502  1.0000
  N   N18       1.0  0.30130  0.73882  0.65299  1.0000
  H   H143      1.0  0.31830  0.74105  0.63418  1.0000
  H   H144      1.0  0.31429  0.77817  0.65206  1.0000
  C   C208      1.0  0.75835  0.47216  0.35097  1.0000
  C   C209      1.0  0.74310  0.46433  0.42826  1.0000
  C   C210      1.0  0.71985  0.46398  0.42989  1.0000
  C   C211      1.0  0.71159  0.47154  0.35388  1.0000
  N   N19       1.0  0.70524  0.45443  0.50382  1.0000
  C   C212      1.0  0.71190  0.44593  0.57623  1.0000
  C   C213      1.0  0.73492  0.44641  0.57509  1.0000
  N   N20       1.0  0.74926  0.45522  0.50062  1.0000
  H   H145      1.0  0.70015  0.43910  0.62981  1.0000
  N   N21       1.0  0.74252  0.43747  0.64818  1.0000
  H   H146      1.0  0.74510  0.42315  0.62630  1.0000
  H   H147      1.0  0.78153  0.46492  0.64363  1.0000
  C   C214      1.0  0.52759  0.28615  0.35110  1.0000
  C   C215      1.0  0.53540  0.27873  0.42841  1.0000
  C   C216      1.0  0.53575  0.25583  0.43009  1.0000
  C   C217      1.0  0.52820  0.24000  0.35413  1.0000
  N   N22       1.0  0.54528  0.25078  0.50409  1.0000
  C   C218      1.0  0.55375  0.26593  0.57651  1.0000
  C   C219      1.0  0.55328  0.28847  0.57530  1.0000
  N   N23       1.0  0.54448  0.29400  0.50078  1.0000
  H   H148      1.0  0.56057  0.26101  0.63013  1.0000
  N   N24       1.0  0.56220  0.30501  0.64838  1.0000
  H   H149      1.0  0.57654  0.32192  0.62653  1.0000
  H   H150      1.0  0.53477  0.31659  0.64361  1.0000
  C   C220      1.0  0.71358  0.24138  0.35080  1.0000
  C   C221      1.0  0.72099  0.25663  0.42808  1.0000
  C   C222      1.0  0.74389  0.27988  0.42971  1.0000
  C   C223      1.0  0.75972  0.28814  0.35373  1.0000
  N   N25       1.0  0.74894  0.29448  0.50367  1.0000
  C   C224      1.0  0.73380  0.28783  0.57608  1.0000
  C   C225      1.0  0.71126  0.26480  0.57493  1.0000
  N   N26       1.0  0.70573  0.25047  0.50046  1.0000
  H   H151      1.0  0.73872  0.29957  0.62969  1.0000
  N   N27       1.0  0.69472  0.25720  0.64804  1.0000
  H   H152      1.0  0.67781  0.25461  0.62619  1.0000
  H   H153      1.0  0.68318  0.21819  0.64343  1.0000
