data_image0
_chemical_formula_structural       C2NO2CNC2NCNO2CHCHCHCHCHN2CHC2HC2NHNO2CHC2HC2NHNO2CHC2HC2NHNO2CHC2HC2NHNO2CHC2HC2NHNO2CHC2HC2NHNO2CHC2NC4H2NO2CHC2NC4H2NO2CHC2NCHCHC2NC4H2NO2CHC2NC4H2NO2CHC3HNO2C2NC4H2NO2CHC2NC4H2NO2CHC2NC4H2NO2CHC2NC4H2NO2CHC2NC4H2NO2CHC2NC4H2NO2CHC6H3N2C6H3N3C6H3N2C6H3N3C6H3N3C6H3N3C6H3N3C6H3N3C6H3N3C6H3N3C6H3N3C6H3N3C2NC4H2NO2CHC2NC4H2NO2CHC2NC4H2NO2CHC2NC4H2NO2CHC2NC4H2NO2CHC2NC4H2NO2CHC2HC2NHNO2CHC2HC2NHNO2CHC2HNO2C2HC2NHNO2CHC2HC2NHNO2CHC2NHCHC2HC2NHNO2CHC2HC2NHNO2CHC2HC2NHNO2CHC2HC2NHNO2CHC2HC2NHNO2CHC2HC2NHNO2CH
_chemical_formula_sum              "C288 N108 O72 H144"
_cell_length_a       74.759
_cell_length_b       74.759
_cell_length_c       14.9645
_cell_angle_alpha    90
_cell_angle_beta     90
_cell_angle_gamma    120

_space_group_name_H-M_alt    "P 1"
_space_group_IT_number       1

loop_
  _space_group_symop_operation_xyz
  'x, y, z'

loop_
  _atom_site_type_symbol
  _atom_site_label
  _atom_site_symmetry_multiplicity
  _atom_site_fract_x
  _atom_site_fract_y
  _atom_site_fract_z
  _atom_site_occupancy
  C   C1        1.0  0.00923  0.80689  0.33513  1.0000
  C   C2        1.0  0.02232  0.81173  0.25933  1.0000
  N   N1        1.0  0.01378  0.80503  0.17310  1.0000
  O   O1        1.0  0.02003  0.79390  0.13786  1.0000
  O   O2        1.0  0.01812  0.82003  0.12219  1.0000
  C   C3        1.0  0.04052  0.22988  0.26866  1.0000
  N   N2        1.0  0.02007  0.21623  0.27712  1.0000
  C   C4        1.0  0.01191  0.19949  0.33199  1.0000
  C   C5        1.0  0.03880  0.82639  0.42938  1.0000
  N   N3        1.0  0.01821  0.81441  0.41595  1.0000
  C   C6        1.0  0.02574  0.19611  0.38490  1.0000
  N   N4        1.0  0.01816  0.17871  0.44189  1.0000
  O   O3        1.0  0.02288  0.18401  0.52202  1.0000
  O   O4        1.0  0.02495  0.16699  0.41993  1.0000
  C   C7        1.0  0.04396  0.82416  0.27162  1.0000
  H   H1        1.0  0.05343  0.82807  0.21697  1.0000
  C   C8        1.0  0.05510  0.22738  0.31896  1.0000
  H   H2        1.0  0.04501  0.24197  0.22536  1.0000
  C   C9        1.0  0.05260  0.83169  0.35689  1.0000
  H   H3        1.0  0.04400  0.83140  0.49279  1.0000
  C   C10       1.0  0.04724  0.21018  0.37723  1.0000
  H   H4        1.0  0.05719  0.20777  0.41545  1.0000
  C   C11       1.0  0.07607  0.24169  0.31127  1.0000
  H   H5        1.0  0.08024  0.25528  0.28316  1.0000
  N   N5        1.0  0.09020  0.23773  0.33629  1.0000
  N   N6        1.0  0.08710  0.84194  0.32795  1.0000
  C   C12       1.0  0.07361  0.84467  0.36966  1.0000
  H   H6        1.0  0.07823  0.85601  0.41431  1.0000
  C   C13       1.0  0.19632  0.36731  0.29051  1.0000
  C   C14       1.0  0.18242  0.34575  0.29682  1.0000
  H   H7        1.0  0.18480  0.33604  0.25668  1.0000
  C   C15       1.0  0.23006  0.44627  0.32633  1.0000
  C   C16       1.0  0.22466  0.43279  0.25257  1.0000
  N   N7        1.0  0.21282  0.41213  0.26447  1.0000
  H   H8        1.0  0.22952  0.43827  0.18935  1.0000
  N   N8        1.0  0.21350  0.37528  0.23208  1.0000
  O   O5        1.0  0.20790  0.37091  0.15205  1.0000
  O   O6        1.0  0.22543  0.36854  0.25107  1.0000
  C   C17       1.0  0.24294  0.46736  0.31475  1.0000
  H   H9        1.0  0.25371  0.47214  0.26725  1.0000
  C   C18       1.0  0.62916  0.82315  0.29047  1.0000
  C   C19       1.0  0.65073  0.83081  0.29676  1.0000
  H   H10       1.0  0.66043  0.84290  0.25660  1.0000
  C   C20       1.0  0.55020  0.77789  0.32636  1.0000
  C   C21       1.0  0.56367  0.78600  0.25260  1.0000
  N   N9        1.0  0.58434  0.79482  0.26446  1.0000
  H   H11       1.0  0.55819  0.78538  0.18940  1.0000
  N   N10       1.0  0.62119  0.83236  0.23206  1.0000
  O   O7        1.0  0.62556  0.83113  0.15202  1.0000
  O   O8        1.0  0.62793  0.85102  0.25105  1.0000
  C   C22       1.0  0.52912  0.76970  0.31483  1.0000
  H   H12       1.0  0.52432  0.77571  0.26751  1.0000
  C   C23       1.0  0.17335  0.80016  0.29051  1.0000
  C   C24       1.0  0.16568  0.81405  0.29682  1.0000
  H   H13       1.0  0.15360  0.81168  0.25665  1.0000
  C   C25       1.0  0.21859  0.76643  0.32633  1.0000
  C   C26       1.0  0.21051  0.77183  0.25258  1.0000
  N   N11       1.0  0.20168  0.78367  0.26447  1.0000
  H   H14       1.0  0.21113  0.76697  0.18936  1.0000
  N   N12       1.0  0.16415  0.78299  0.23203  1.0000
  O   O9        1.0  0.16539  0.78860  0.15201  1.0000
  O   O10       1.0  0.14548  0.77105  0.25095  1.0000
  C   C27       1.0  0.22679  0.75355  0.31476  1.0000
  H   H15       1.0  0.22080  0.74278  0.26732  1.0000
  C   C28       1.0  0.80289  0.62641  0.29046  1.0000
  C   C29       1.0  0.81678  0.64797  0.29673  1.0000
  H   H16       1.0  0.81440  0.65767  0.25659  1.0000
  C   C30       1.0  0.76917  0.54744  0.32640  1.0000
  C   C31       1.0  0.77455  0.56092  0.25263  1.0000
  N   N13       1.0  0.78639  0.58158  0.26447  1.0000
  H   H17       1.0  0.76968  0.55543  0.18942  1.0000
  N   N14       1.0  0.78570  0.61843  0.23207  1.0000
  O   O11       1.0  0.79129  0.62280  0.15202  1.0000
  O   O12       1.0  0.77377  0.62517  0.25107  1.0000
  C   C32       1.0  0.75631  0.52636  0.31485  1.0000
  H   H18       1.0  0.74551  0.52155  0.26750  1.0000
  C   C33       1.0  0.37006  0.17060  0.29051  1.0000
  C   C34       1.0  0.34850  0.16294  0.29683  1.0000
  H   H19       1.0  0.33880  0.15085  0.25669  1.0000
  C   C35       1.0  0.44903  0.21585  0.32625  1.0000
  C   C36       1.0  0.43554  0.20776  0.25251  1.0000
  N   N15       1.0  0.41488  0.19894  0.26443  1.0000
  H   H20       1.0  0.44102  0.20838  0.18928  1.0000
  N   N16       1.0  0.37803  0.16140  0.23207  1.0000
  O   O13       1.0  0.37366  0.16263  0.15204  1.0000
  O   O14       1.0  0.37129  0.14273  0.25105  1.0000
  C   C37       1.0  0.47011  0.22406  0.31462  1.0000
  H   H21       1.0  0.47489  0.21807  0.26715  1.0000
  C   C38       1.0  0.82590  0.19363  0.29041  1.0000
  C   C39       1.0  0.83356  0.17973  0.29667  1.0000
  H   H22       1.0  0.84564  0.18211  0.25651  1.0000
  C   C40       1.0  0.78066  0.22736  0.32643  1.0000
  C   C41       1.0  0.78877  0.22200  0.25265  1.0000
  N   N17       1.0  0.79759  0.21016  0.26447  1.0000
  H   H23       1.0  0.78816  0.22689  0.18946  1.0000
  N   N18       1.0  0.83511  0.21082  0.23202  1.0000
  O   O15       1.0  0.83388  0.20523  0.15197  1.0000
  O   O16       1.0  0.85378  0.22274  0.25101  1.0000
  C   C42       1.0  0.77247  0.24025  0.31496  1.0000
  H   H24       1.0  0.77849  0.25108  0.26774  1.0000
  C   C43       1.0  0.23012  0.17188  0.31889  1.0000
  C   C44       1.0  0.23263  0.18897  0.26862  1.0000
  N   N19       1.0  0.21898  0.19576  0.27708  1.0000
  C   C45       1.0  0.20223  0.18717  0.33193  1.0000
  C   C46       1.0  0.18959  0.19646  0.33511  1.0000
  C   C47       1.0  0.18474  0.20472  0.25931  1.0000
  C   C48       1.0  0.17232  0.21393  0.27162  1.0000
  H   H25       1.0  0.16839  0.21947  0.21695  1.0000
  H   H26       1.0  0.24472  0.19657  0.22533  1.0000
  N   N20       1.0  0.19143  0.20286  0.17307  1.0000
  O   O17       1.0  0.20257  0.22025  0.13781  1.0000
  O   O18       1.0  0.17643  0.19220  0.12218  1.0000
  C   C49       1.0  0.24444  0.16523  0.31120  1.0000
  H   H27       1.0  0.25804  0.17466  0.28322  1.0000
  C   C50       1.0  0.82457  0.05238  0.31898  1.0000
  C   C51       1.0  0.80749  0.03779  0.26870  1.0000
  N   N21       1.0  0.80070  0.01735  0.27716  1.0000
  C   C52       1.0  0.80929  0.00919  0.33201  1.0000
  C   C53       1.0  0.80001  0.98726  0.33515  1.0000
  C   C54       1.0  0.79176  0.97416  0.25934  1.0000
  C   C55       1.0  0.78255  0.95252  0.27162  1.0000
  H   H28       1.0  0.77700  0.94306  0.21695  1.0000
  H   H29       1.0  0.79989  0.04228  0.22540  1.0000
  N   N22       1.0  0.79361  0.98272  0.17312  1.0000
  O   O19       1.0  0.77622  0.97646  0.13787  1.0000
  O   O20       1.0  0.80427  0.97838  0.12220  1.0000
  C   C56       1.0  0.83122  0.07334  0.31129  1.0000
  H   H30       1.0  0.82180  0.07751  0.28322  1.0000
  C   C57       1.0  0.94411  0.76635  0.31890  1.0000
  C   C58       1.0  0.95870  0.76385  0.26864  1.0000
  N   N23       1.0  0.97914  0.77750  0.27712  1.0000
  C   C59       1.0  0.98730  0.79424  0.33197  1.0000
  H   H31       1.0  0.95420  0.75176  0.22534  1.0000
  C   C60       1.0  0.92315  0.75204  0.31120  1.0000
  H   H32       1.0  0.91897  0.73844  0.28320  1.0000
  C   C61       1.0  0.76910  0.82186  0.31890  1.0000
  C   C62       1.0  0.76660  0.80477  0.26862  1.0000
  N   N24       1.0  0.78024  0.79797  0.27709  1.0000
  C   C63       1.0  0.79699  0.80656  0.33195  1.0000
  C   C64       1.0  0.80963  0.79727  0.33511  1.0000
  C   C65       1.0  0.81447  0.78902  0.25930  1.0000
  C   C66       1.0  0.82689  0.77979  0.27159  1.0000
  H   H33       1.0  0.83081  0.77425  0.21691  1.0000
  H   H34       1.0  0.75450  0.79718  0.22533  1.0000
  N   N25       1.0  0.80778  0.79088  0.17306  1.0000
  O   O21       1.0  0.79664  0.77349  0.13779  1.0000
  O   O22       1.0  0.82279  0.80154  0.12218  1.0000
  C   C67       1.0  0.75479  0.82851  0.31121  1.0000
  H   H35       1.0  0.74119  0.81908  0.28321  1.0000
  C   C68       1.0  0.17463  0.94137  0.31888  1.0000
  C   C69       1.0  0.19172  0.95595  0.26862  1.0000
  N   N26       1.0  0.19851  0.97640  0.27708  1.0000
  C   C70       1.0  0.18992  0.98455  0.33193  1.0000
  C   C71       1.0  0.19921  0.00649  0.33511  1.0000
  C   C72       1.0  0.20747  0.01959  0.25931  1.0000
  C   C73       1.0  0.21669  0.04123  0.27162  1.0000
  H   H36       1.0  0.22223  0.05069  0.21695  1.0000
  H   H37       1.0  0.19931  0.95146  0.22533  1.0000
  N   N27       1.0  0.20561  0.01104  0.17307  1.0000
  O   O23       1.0  0.22300  0.01729  0.13781  1.0000
  O   O24       1.0  0.19495  0.01538  0.12218  1.0000
  C   C74       1.0  0.16797  0.92040  0.31119  1.0000
  H   H38       1.0  0.17741  0.91623  0.28320  1.0000
  C   C75       1.0  0.98998  0.18684  0.33512  1.0000
  C   C76       1.0  0.97689  0.18200  0.25931  1.0000
  C   C77       1.0  0.95524  0.16958  0.27159  1.0000
  H   H39       1.0  0.94578  0.16566  0.21691  1.0000
  N   N28       1.0  0.98544  0.18870  0.17308  1.0000
  O   O25       1.0  0.97919  0.19984  0.13783  1.0000
  O   O26       1.0  0.98110  0.17370  0.12218  1.0000
  C   C78       1.0  0.23517  0.57023  0.29192  1.0000
  C   C79       1.0  0.24191  0.58693  0.23179  1.0000
  N   N29       1.0  0.23642  0.60144  0.24426  1.0000
  C   C80       1.0  0.22392  0.60115  0.31085  1.0000
  C   C81       1.0  0.22127  0.61871  0.31827  1.0000
  C   C82       1.0  0.22065  0.63018  0.24366  1.0000
  C   C83       1.0  0.22110  0.64908  0.25954  1.0000
  H   H40       1.0  0.22127  0.65775  0.20616  1.0000
  H   H41       1.0  0.25178  0.58899  0.18039  1.0000
  N   N30       1.0  0.21960  0.62282  0.15553  1.0000
  O   O27       1.0  0.23496  0.63520  0.10985  1.0000
  O   O28       1.0  0.20345  0.61979  0.11639  1.0000
  C   C84       1.0  0.24293  0.55684  0.28365  1.0000
  H   H42       1.0  0.25105  0.55793  0.22890  1.0000
  C   C85       1.0  0.42630  0.65900  0.29198  1.0000
  C   C86       1.0  0.40959  0.64905  0.23186  1.0000
  N   N31       1.0  0.39508  0.62905  0.24433  1.0000
  C   C87       1.0  0.39536  0.61683  0.31091  1.0000
  C   C88       1.0  0.37781  0.59663  0.31833  1.0000
  C   C89       1.0  0.36633  0.58454  0.24372  1.0000
  C   C90       1.0  0.34744  0.56608  0.25962  1.0000
  H   H43       1.0  0.33876  0.55762  0.20622  1.0000
  H   H44       1.0  0.40753  0.65687  0.18048  1.0000
  N   N32       1.0  0.37369  0.59086  0.15559  1.0000
  O   O29       1.0  0.36130  0.59383  0.10995  1.0000
  O   O30       1.0  0.37672  0.57774  0.11640  1.0000
  C   C91       1.0  0.43969  0.68016  0.28369  1.0000
  H   H45       1.0  0.43860  0.68720  0.22900  1.0000
  C   C92       1.0  0.33746  0.76138  0.29192  1.0000
  C   C93       1.0  0.34741  0.75461  0.23185  1.0000
  N   N33       1.0  0.36741  0.76010  0.24433  1.0000
  C   C94       1.0  0.37963  0.77262  0.31086  1.0000
  C   C95       1.0  0.39981  0.77522  0.31835  1.0000
  C   C96       1.0  0.41191  0.77583  0.24377  1.0000
  C   C97       1.0  0.43037  0.77539  0.25968  1.0000
  H   H46       1.0  0.43884  0.77518  0.20630  1.0000
  H   H47       1.0  0.33959  0.74473  0.18049  1.0000
  N   N34       1.0  0.40560  0.77687  0.15562  1.0000
  O   O31       1.0  0.40263  0.76150  0.10999  1.0000
  O   O32       1.0  0.41872  0.79302  0.11643  1.0000
  C   C98       1.0  0.31630  0.75362  0.28365  1.0000
  H   H48       1.0  0.30928  0.74550  0.22890  1.0000
  C   C99       1.0  0.76431  0.42368  0.29202  1.0000
  C   C100      1.0  0.75741  0.40691  0.23216  1.0000
  N   N35       1.0  0.76283  0.39234  0.24463  1.0000
  C   C101      1.0  0.77537  0.39263  0.31102  1.0000
  C   C102      1.0  0.77795  0.37503  0.31848  1.0000
  C   C103      1.0  0.77848  0.36351  0.24388  1.0000
  C   C104      1.0  0.77802  0.34460  0.25980  1.0000
  H   H49       1.0  0.77777  0.33590  0.20643  1.0000
  H   H50       1.0  0.74753  0.40488  0.18085  1.0000
  N   N36       1.0  0.77946  0.37082  0.15572  1.0000
  O   O33       1.0  0.76404  0.35842  0.11034  1.0000
  O   O34       1.0  0.79556  0.37381  0.11628  1.0000
  C   C105      1.0  0.75670  0.43720  0.28353  1.0000
  H   H51       1.0  0.74873  0.43626  0.22847  1.0000
  C   C106      1.0  0.57300  0.33468  0.29184  1.0000
  C   C107      1.0  0.58970  0.34463  0.23170  1.0000
  N   N37       1.0  0.60422  0.36463  0.24419  1.0000
  C   C108      1.0  0.60395  0.37684  0.31078  1.0000
  C   C109      1.0  0.62151  0.39703  0.31821  1.0000
  C   C110      1.0  0.63300  0.40913  0.24362  1.0000
  C   C111      1.0  0.65190  0.42757  0.25953  1.0000
  H   H52       1.0  0.66057  0.43606  0.20616  1.0000
  H   H53       1.0  0.59176  0.33681  0.18031  1.0000
  N   N38       1.0  0.62564  0.40282  0.15548  1.0000
  O   O35       1.0  0.63802  0.39984  0.10983  1.0000
  O   O36       1.0  0.62262  0.41595  0.11632  1.0000
  C   C112      1.0  0.55959  0.31352  0.28356  1.0000
  H   H54       1.0  0.56066  0.30649  0.22879  1.0000
  C   C113      1.0  0.66172  0.23227  0.29196  1.0000
  C   C114      1.0  0.65177  0.23902  0.23182  1.0000
  N   N39       1.0  0.63177  0.23353  0.24427  1.0000
  C   C115      1.0  0.61955  0.22104  0.31085  1.0000
  C   C116      1.0  0.59935  0.21840  0.31826  1.0000
  C   C117      1.0  0.58726  0.21779  0.24366  1.0000
  C   C118      1.0  0.56881  0.21824  0.25955  1.0000
  H   H55       1.0  0.56034  0.21845  0.20616  1.0000
  H   H56       1.0  0.65959  0.24890  0.18044  1.0000
  N   N40       1.0  0.59357  0.21674  0.15552  1.0000
  O   O37       1.0  0.59656  0.23211  0.10989  1.0000
  O   O38       1.0  0.58045  0.20060  0.11634  1.0000
  C   C119      1.0  0.68288  0.24004  0.28374  1.0000
  H   H57       1.0  0.68993  0.24819  0.22908  1.0000
  C   C120      1.0  0.11075  0.24895  0.33457  1.0000
  C   C121      1.0  0.12195  0.27081  0.33557  1.0000
  C   C122      1.0  0.14381  0.28190  0.33402  1.0000
  C   C123      1.0  0.15441  0.27072  0.32993  1.0000
  C   C124      1.0  0.14366  0.24893  0.33210  1.0000
  C   C125      1.0  0.12181  0.23824  0.33422  1.0000
  H   H58       1.0  0.17024  0.27857  0.32765  1.0000
  H   H59       1.0  0.11387  0.22242  0.33316  1.0000
  H   H60       1.0  0.11410  0.27873  0.33703  1.0000
  N   N41       1.0  0.15508  0.30247  0.33364  1.0000
  N   N42       1.0  0.15453  0.23928  0.32795  1.0000
  C   C126      1.0  0.74752  0.85593  0.33451  1.0000
  C   C127      1.0  0.72567  0.84528  0.33547  1.0000
  C   C128      1.0  0.71458  0.85604  0.33386  1.0000
  C   C129      1.0  0.72575  0.87782  0.32979  1.0000
  C   C130      1.0  0.74754  0.88886  0.33199  1.0000
  C   C131      1.0  0.75824  0.87771  0.33411  1.0000
  H   H61       1.0  0.71790  0.88580  0.32757  1.0000
  H   H62       1.0  0.77406  0.88559  0.33312  1.0000
  H   H63       1.0  0.71775  0.82951  0.33692  1.0000
  N   N43       1.0  0.75875  0.84661  0.33620  1.0000
  N   N44       1.0  0.69401  0.84675  0.33352  1.0000
  N   N45       1.0  0.75719  0.90938  0.32791  1.0000
  C   C132      1.0  0.14056  0.88572  0.33452  1.0000
  C   C133      1.0  0.15121  0.87452  0.33553  1.0000
  C   C134      1.0  0.14044  0.85266  0.33402  1.0000
  C   C135      1.0  0.11866  0.84205  0.32995  1.0000
  C   C136      1.0  0.10763  0.85281  0.33210  1.0000
  C   C137      1.0  0.11877  0.87465  0.33418  1.0000
  H   H64       1.0  0.11068  0.82623  0.32768  1.0000
  H   H65       1.0  0.11090  0.88260  0.33311  1.0000
  H   H66       1.0  0.16698  0.88237  0.33698  1.0000
  N   N46       1.0  0.14988  0.90627  0.33619  1.0000
  N   N47       1.0  0.14973  0.84139  0.33365  1.0000
  C   C138      1.0  0.88846  0.74477  0.33451  1.0000
  C   C139      1.0  0.87726  0.72291  0.33545  1.0000
  C   C140      1.0  0.85540  0.71182  0.33383  1.0000
  C   C141      1.0  0.84479  0.72299  0.32977  1.0000
  C   C142      1.0  0.85555  0.74478  0.33198  1.0000
  C   C143      1.0  0.87739  0.75548  0.33411  1.0000
  H   H67       1.0  0.82897  0.71515  0.32753  1.0000
  H   H68       1.0  0.88534  0.77130  0.33313  1.0000
  H   H69       1.0  0.88511  0.71500  0.33689  1.0000
  N   N48       1.0  0.90901  0.75600  0.33620  1.0000
  N   N49       1.0  0.84413  0.69125  0.33346  1.0000
  N   N50       1.0  0.84468  0.75443  0.32789  1.0000
  C   C144      1.0  0.25171  0.13782  0.33453  1.0000
  C   C145      1.0  0.27356  0.14847  0.33554  1.0000
  C   C146      1.0  0.28465  0.13770  0.33403  1.0000
  C   C147      1.0  0.27348  0.11592  0.32995  1.0000
  C   C148      1.0  0.25169  0.10489  0.33211  1.0000
  C   C149      1.0  0.24099  0.11603  0.33418  1.0000
  H   H70       1.0  0.28133  0.10795  0.32769  1.0000
  H   H71       1.0  0.22517  0.10816  0.33312  1.0000
  H   H72       1.0  0.28148  0.16424  0.33699  1.0000
  N   N51       1.0  0.24048  0.14714  0.33620  1.0000
  N   N52       1.0  0.30522  0.14699  0.33366  1.0000
  N   N53       1.0  0.24204  0.08436  0.32796  1.0000
  C   C150      1.0  0.85865  0.10803  0.33449  1.0000
  C   C151      1.0  0.84800  0.11923  0.33541  1.0000
  C   C152      1.0  0.85877  0.14109  0.33378  1.0000
  C   C153      1.0  0.88055  0.15169  0.32971  1.0000
  C   C154      1.0  0.89158  0.14093  0.33193  1.0000
  C   C155      1.0  0.88043  0.11909  0.33408  1.0000
  H   H73       1.0  0.88853  0.16751  0.32746  1.0000
  H   H74       1.0  0.88830  0.11114  0.33313  1.0000
  H   H75       1.0  0.83223  0.11138  0.33688  1.0000
  N   N54       1.0  0.84932  0.08747  0.33624  1.0000
  N   N55       1.0  0.84948  0.15237  0.33342  1.0000
  N   N56       1.0  0.91210  0.15180  0.32785  1.0000
  C   C156      1.0  0.25215  0.53423  0.34819  1.0000
  C   C157      1.0  0.24125  0.51253  0.35690  1.0000
  C   C158      1.0  0.25185  0.50129  0.35588  1.0000
  C   C159      1.0  0.27371  0.51218  0.35135  1.0000
  C   C160      1.0  0.28487  0.53395  0.34537  1.0000
  C   C161      1.0  0.27392  0.54473  0.34302  1.0000
  H   H76       1.0  0.28153  0.50420  0.35152  1.0000
  H   H77       1.0  0.28190  0.56053  0.33821  1.0000
  H   H78       1.0  0.22546  0.50485  0.36075  1.0000
  N   N57       1.0  0.24246  0.54507  0.34762  1.0000
  N   N58       1.0  0.24082  0.48077  0.36041  1.0000
  N   N59       1.0  0.30519  0.54532  0.33771  1.0000
  C   C162      1.0  0.46226  0.71198  0.34841  1.0000
  C   C163      1.0  0.48396  0.72279  0.35698  1.0000
  C   C164      1.0  0.49518  0.74463  0.35596  1.0000
  C   C165      1.0  0.48428  0.75560  0.35163  1.0000
  C   C166      1.0  0.46251  0.74496  0.34581  1.0000
  C   C167      1.0  0.45175  0.72323  0.34344  1.0000
  H   H79       1.0  0.49225  0.77139  0.35183  1.0000
  H   H80       1.0  0.43595  0.71540  0.33872  1.0000
  H   H81       1.0  0.49166  0.71469  0.36061  1.0000
  N   N60       1.0  0.45144  0.69144  0.34774  1.0000
  N   N61       1.0  0.51571  0.75413  0.36038  1.0000
  N   N62       1.0  0.45111  0.75389  0.33842  1.0000
  C   C168      1.0  0.28448  0.74438  0.34824  1.0000
  C   C169      1.0  0.27367  0.75527  0.35689  1.0000
  C   C170      1.0  0.25184  0.74467  0.35590  1.0000
  C   C171      1.0  0.24087  0.72280  0.35143  1.0000
  C   C172      1.0  0.25149  0.71165  0.34550  1.0000
  C   C173      1.0  0.27322  0.72262  0.34314  1.0000
  H   H82       1.0  0.22507  0.71497  0.35162  1.0000
  H   H83       1.0  0.28105  0.71464  0.33837  1.0000
  H   H84       1.0  0.28178  0.77106  0.36069  1.0000
  N   N63       1.0  0.30502  0.75409  0.34765  1.0000
  N   N64       1.0  0.24234  0.75568  0.36039  1.0000
  N   N65       1.0  0.24256  0.69133  0.33795  1.0000
  C   C174      1.0  0.74722  0.45953  0.34874  1.0000
  C   C175      1.0  0.75809  0.48123  0.35733  1.0000
  C   C176      1.0  0.74747  0.49244  0.35612  1.0000
  C   C177      1.0  0.72560  0.48152  0.35167  1.0000
  C   C178      1.0  0.71448  0.45974  0.34585  1.0000
  C   C179      1.0  0.72546  0.44900  0.34360  1.0000
  H   H85       1.0  0.71776  0.48947  0.35175  1.0000
  H   H86       1.0  0.71751  0.43320  0.33884  1.0000
  H   H87       1.0  0.77389  0.48894  0.36097  1.0000
  N   N66       1.0  0.75693  0.44870  0.34814  1.0000
  N   N67       1.0  0.75847  0.51296  0.36050  1.0000
  N   N68       1.0  0.69415  0.44833  0.33837  1.0000
  C   C180      1.0  0.53699  0.28170  0.34814  1.0000
  C   C181      1.0  0.51529  0.27091  0.35685  1.0000
  C   C182      1.0  0.50405  0.24907  0.35583  1.0000
  C   C183      1.0  0.51492  0.23808  0.35130  1.0000
  C   C184      1.0  0.53670  0.24869  0.34532  1.0000
  C   C185      1.0  0.54748  0.27042  0.34296  1.0000
  H   H88       1.0  0.50694  0.22228  0.35146  1.0000
  H   H89       1.0  0.56328  0.27824  0.33814  1.0000
  H   H90       1.0  0.50762  0.27902  0.36070  1.0000
  N   N69       1.0  0.54784  0.30223  0.34757  1.0000
  N   N70       1.0  0.48353  0.23958  0.36034  1.0000
  N   N71       1.0  0.54806  0.23973  0.33765  1.0000
  C   C186      1.0  0.71469  0.24930  0.34857  1.0000
  C   C187      1.0  0.72552  0.23843  0.35704  1.0000
  C   C188      1.0  0.74735  0.24906  0.35606  1.0000
  C   C189      1.0  0.75830  0.27093  0.35195  1.0000
  C   C190      1.0  0.74765  0.28205  0.34629  1.0000
  C   C191      1.0  0.72592  0.27107  0.34383  1.0000
  H   H91       1.0  0.77410  0.27877  0.35223  1.0000
  H   H92       1.0  0.71807  0.27902  0.33923  1.0000
  H   H93       1.0  0.71743  0.22263  0.36045  1.0000
  N   N72       1.0  0.69415  0.23957  0.34782  1.0000
  N   N73       1.0  0.75687  0.23805  0.36041  1.0000
  N   N74       1.0  0.75655  0.30239  0.33920  1.0000
  C   C192      1.0  0.16546  0.33747  0.35645  1.0000
  C   C193      1.0  0.16300  0.35173  0.40942  1.0000
  N   N75       1.0  0.17647  0.37225  0.40221  1.0000
  C   C194      1.0  0.19301  0.38080  0.34619  1.0000
  C   C195      1.0  0.20550  0.40277  0.34478  1.0000
  C   C196      1.0  0.21039  0.41553  0.42178  1.0000
  C   C197      1.0  0.22270  0.43723  0.41114  1.0000
  H   H94       1.0  0.22665  0.44645  0.46665  1.0000
  H   H95       1.0  0.15107  0.34695  0.45382  1.0000
  N   N76       1.0  0.20386  0.40660  0.50752  1.0000
  O   O39       1.0  0.19268  0.41258  0.54448  1.0000
  O   O40       1.0  0.21895  0.41081  0.55764  1.0000
  C   C198      1.0  0.15132  0.31643  0.36312  1.0000
  H   H96       1.0  0.13798  0.31205  0.39404  1.0000
  C   C199      1.0  0.65900  0.82212  0.35634  1.0000
  C   C200      1.0  0.64475  0.80540  0.40931  1.0000
  N   N77       1.0  0.62423  0.79836  0.40213  1.0000
  C   C201      1.0  0.61568  0.80635  0.34614  1.0000
  C   C202      1.0  0.59371  0.79686  0.34476  1.0000
  C   C203      1.0  0.58095  0.78898  0.42177  1.0000
  C   C204      1.0  0.55924  0.77956  0.41115  1.0000
  H   H97       1.0  0.55003  0.77431  0.46668  1.0000
  H   H98       1.0  0.64954  0.79825  0.45369  1.0000
  N   N78       1.0  0.58989  0.79138  0.50749  1.0000
  O   O41       1.0  0.58392  0.77422  0.54445  1.0000
  O   O42       1.0  0.58566  0.80225  0.55763  1.0000
  C   C205      1.0  0.68004  0.82902  0.36298  1.0000
  H   H99       1.0  0.68443  0.82006  0.39386  1.0000
  C   C206      1.0  0.17437  0.83101  0.35647  1.0000
  C   C207      1.0  0.19108  0.83347  0.40947  1.0000
  N   N79       1.0  0.19812  0.81999  0.40226  1.0000
  C   C208      1.0  0.19014  0.80346  0.34622  1.0000
  C   C209      1.0  0.19963  0.79098  0.34480  1.0000
  C   C210      1.0  0.20749  0.78608  0.42180  1.0000
  C   C211      1.0  0.21691  0.77379  0.41115  1.0000
  H   H100      1.0  0.22215  0.76982  0.46667  1.0000
  H   H101      1.0  0.19822  0.84540  0.45390  1.0000
  N   N80       1.0  0.20508  0.79260  0.50754  1.0000
  O   O43       1.0  0.22224  0.80378  0.54456  1.0000
  O   O44       1.0  0.19420  0.77750  0.55762  1.0000
  C   C212      1.0  0.16746  0.84515  0.36314  1.0000
  H   H102      1.0  0.17642  0.85850  0.39405  1.0000
  C   C213      1.0  0.83376  0.65625  0.35630  1.0000
  C   C214      1.0  0.83622  0.64199  0.40929  1.0000
  N   N81       1.0  0.82274  0.62148  0.40212  1.0000
  C   C215      1.0  0.80620  0.61292  0.34613  1.0000
  C   C216      1.0  0.79372  0.59096  0.34476  1.0000
  C   C217      1.0  0.78883  0.57820  0.42179  1.0000
  C   C218      1.0  0.77655  0.55649  0.41119  1.0000
  H   H103      1.0  0.77260  0.54728  0.46672  1.0000
  H   H104      1.0  0.84815  0.64679  0.45368  1.0000
  N   N82       1.0  0.79537  0.58714  0.50750  1.0000
  O   O45       1.0  0.80657  0.58117  0.54447  1.0000
  O   O46       1.0  0.78028  0.58292  0.55765  1.0000
  C   C219      1.0  0.84789  0.67729  0.36295  1.0000
  H   H105      1.0  0.86124  0.68168  0.39390  1.0000
  C   C220      1.0  0.34023  0.17163  0.35646  1.0000
  C   C221      1.0  0.35449  0.18835  0.40944  1.0000
  N   N83       1.0  0.37500  0.19539  0.40221  1.0000
  C   C222      1.0  0.38355  0.18740  0.34619  1.0000
  C   C223      1.0  0.40552  0.19689  0.34476  1.0000
  C   C224      1.0  0.41829  0.20476  0.42175  1.0000
  C   C225      1.0  0.43999  0.21417  0.41107  1.0000
  H   H106      1.0  0.44921  0.21943  0.46657  1.0000
  H   H107      1.0  0.34970  0.19549  0.45385  1.0000
  N   N84       1.0  0.40936  0.20236  0.50749  1.0000
  O   O47       1.0  0.41534  0.21952  0.54446  1.0000
  O   O48       1.0  0.41358  0.19148  0.55759  1.0000
  C   C226      1.0  0.31919  0.16473  0.36313  1.0000
  H   H108      1.0  0.31480  0.17369  0.39405  1.0000
  C   C227      1.0  0.82486  0.16275  0.35624  1.0000
  C   C228      1.0  0.80813  0.16029  0.40920  1.0000
  N   N85       1.0  0.80110  0.17377  0.40204  1.0000
  C   C229      1.0  0.80910  0.19032  0.34608  1.0000
  C   C230      1.0  0.79962  0.20281  0.34474  1.0000
  C   C231      1.0  0.79174  0.20768  0.42177  1.0000
  C   C232      1.0  0.78233  0.21998  0.41119  1.0000
  H   H109      1.0  0.77707  0.22393  0.46673  1.0000
  H   H110      1.0  0.80098  0.14835  0.45357  1.0000
  N   N86       1.0  0.79414  0.20113  0.50748  1.0000
  O   O49       1.0  0.77697  0.18993  0.54441  1.0000
  O   O50       1.0  0.80500  0.21622  0.55765  1.0000
  C   C233      1.0  0.83175  0.14861  0.36286  1.0000
  H   H111      1.0  0.82278  0.13525  0.39371  1.0000
  C   C234      1.0  0.19886  0.16997  0.38485  1.0000
  C   C235      1.0  0.21293  0.16255  0.37719  1.0000
  H   H112      1.0  0.21052  0.15018  0.41540  1.0000
  C   C236      1.0  0.16478  0.21503  0.35687  1.0000
  C   C237      1.0  0.17008  0.20653  0.42936  1.0000
  N   N87       1.0  0.18207  0.19792  0.41593  1.0000
  H   H113      1.0  0.16507  0.20672  0.49277  1.0000
  N   N88       1.0  0.18146  0.16015  0.44187  1.0000
  O   O51       1.0  0.18677  0.16074  0.52200  1.0000
  O   O52       1.0  0.16974  0.14163  0.41994  1.0000
  C   C238      1.0  0.15180  0.22305  0.36964  1.0000
  H   H114      1.0  0.14045  0.21632  0.41427  1.0000
  C   C239      1.0  0.82650  0.02303  0.38491  1.0000
  C   C240      1.0  0.83391  0.04452  0.37725  1.0000
  H   H115      1.0  0.84628  0.05447  0.41546  1.0000
  C   C241      1.0  0.78145  0.94389  0.35688  1.0000
  C   C242      1.0  0.78995  0.95768  0.42938  1.0000
  N   N89       1.0  0.79855  0.97828  0.41596  1.0000
  H   H116      1.0  0.78975  0.95248  0.49277  1.0000
  N   N90       1.0  0.83632  0.01545  0.44190  1.0000
  O   O53       1.0  0.83574  0.02016  0.52203  1.0000
  O   O54       1.0  0.85484  0.02224  0.41993  1.0000
  C   C243      1.0  0.77342  0.92288  0.36964  1.0000
  H   H117      1.0  0.78015  0.91826  0.41422  1.0000
  C   C244      1.0  0.97346  0.79761  0.38489  1.0000
  C   C245      1.0  0.95197  0.78354  0.37721  1.0000
  H   H118      1.0  0.94201  0.78595  0.41542  1.0000
  N   N91       1.0  0.98104  0.81501  0.44189  1.0000
  O   O55       1.0  0.97632  0.80971  0.52202  1.0000
  O   O56       1.0  0.97425  0.82674  0.41994  1.0000
  C   C246      1.0  0.80036  0.82376  0.38487  1.0000
  C   C247      1.0  0.78629  0.83119  0.37719  1.0000
  H   H119      1.0  0.78871  0.84356  0.41542  1.0000
  C   C248      1.0  0.83442  0.77868  0.35685  1.0000
  C   C249      1.0  0.82913  0.78719  0.42934  1.0000
  N   N92       1.0  0.81715  0.79581  0.41592  1.0000
  H   H120      1.0  0.83414  0.78700  0.49274  1.0000
  N   N93       1.0  0.81776  0.83358  0.44189  1.0000
  O   O57       1.0  0.81246  0.83299  0.52201  1.0000
  O   O58       1.0  0.82949  0.85210  0.41995  1.0000
  C   C250      1.0  0.84741  0.77066  0.36958  1.0000
  H   H121      1.0  0.85876  0.77740  0.41419  1.0000
  C   C251      1.0  0.17271  0.97072  0.38485  1.0000
  C   C252      1.0  0.16529  0.94923  0.37718  1.0000
  H   H122      1.0  0.15293  0.93927  0.41540  1.0000
  C   C253      1.0  0.21778  0.04986  0.35689  1.0000
  C   C254      1.0  0.20928  0.03606  0.42937  1.0000
  N   N94       1.0  0.20067  0.01546  0.41593  1.0000
  H   H123      1.0  0.20947  0.04126  0.49277  1.0000
  N   N95       1.0  0.16290  0.97830  0.44187  1.0000
  O   O59       1.0  0.16349  0.97359  0.52200  1.0000
  O   O60       1.0  0.14438  0.97151  0.41994  1.0000
  C   C255      1.0  0.22581  0.07087  0.36964  1.0000
  H   H124      1.0  0.21908  0.07548  0.41427  1.0000
  C   C256      1.0  0.94661  0.16204  0.35685  1.0000
  C   C257      1.0  0.96040  0.16734  0.42935  1.0000
  N   N96       1.0  0.98100  0.17932  0.41593  1.0000
  H   H125      1.0  0.95520  0.16233  0.49275  1.0000
  C   C258      1.0  0.92560  0.14907  0.36960  1.0000
  H   H126      1.0  0.92097  0.13772  0.41421  1.0000
  C   C259      1.0  0.21625  0.58455  0.37289  1.0000
  C   C260      1.0  0.22202  0.56924  0.36220  1.0000
  H   H127      1.0  0.21679  0.55744  0.40762  1.0000
  C   C261      1.0  0.22201  0.65646  0.34719  1.0000
  C   C262      1.0  0.22195  0.64418  0.41869  1.0000
  N   N97       1.0  0.22197  0.62638  0.40154  1.0000
  H   H128      1.0  0.22313  0.64898  0.48351  1.0000
  N   N98       1.0  0.20299  0.58339  0.44289  1.0000
  O   O61       1.0  0.21065  0.58381  0.51815  1.0000
  O   O62       1.0  0.18567  0.56722  0.43736  1.0000
  C   C263      1.0  0.22515  0.67602  0.36219  1.0000
  H   H129      1.0  0.21522  0.67803  0.39880  1.0000
  C   C264      1.0  0.41197  0.62577  0.37293  1.0000
  C   C265      1.0  0.42729  0.64685  0.36222  1.0000
  H   H130      1.0  0.43909  0.65341  0.40766  1.0000
  C   C266      1.0  0.34006  0.55961  0.34726  1.0000
  C   C267      1.0  0.35236  0.57183  0.41877  1.0000
  N   N99       1.0  0.37014  0.58966  0.40160  1.0000
  H   H131      1.0  0.34752  0.56824  0.48356  1.0000
  N   N100      1.0  0.41313  0.61367  0.44294  1.0000
  O   O63       1.0  0.41272  0.62091  0.51819  1.0000
  O   O64       1.0  0.42929  0.61250  0.43739  1.0000
  C   C268      1.0  0.32049  0.54323  0.36226  1.0000
  H   H132      1.0  0.31845  0.53133  0.39936  1.0000
  C   C269      1.0  0.37069  0.78028  0.37289  1.0000
  C   C270      1.0  0.34962  0.77453  0.36218  1.0000
  H   H133      1.0  0.34306  0.77977  0.40759  1.0000
  C   C271      1.0  0.43683  0.77449  0.34734  1.0000
  C   C272      1.0  0.42462  0.77457  0.41883  1.0000
  N   N101      1.0  0.40680  0.77455  0.40164  1.0000
  H   H134      1.0  0.42824  0.77338  0.48363  1.0000
  N   N102      1.0  0.38280  0.79354  0.44290  1.0000
  O   O65       1.0  0.37555  0.78588  0.51815  1.0000
  O   O66       1.0  0.38397  0.81087  0.43738  1.0000
  C   C273      1.0  0.45323  0.77132  0.36232  1.0000
  H   H135      1.0  0.46527  0.78137  0.39824  1.0000
  C   C274      1.0  0.78318  0.40929  0.37277  1.0000
  C   C275      1.0  0.77751  0.42468  0.36202  1.0000
  H   H136      1.0  0.78288  0.43654  0.40716  1.0000
  C   C276      1.0  0.77719  0.33727  0.34748  1.0000
  C   C277      1.0  0.77734  0.34961  0.41896  1.0000
  N   N103      1.0  0.77733  0.36741  0.40178  1.0000
  H   H137      1.0  0.77622  0.34484  0.48381  1.0000
  N   N104      1.0  0.79650  0.41045  0.44251  1.0000
  O   O67       1.0  0.78896  0.41016  0.51791  1.0000
  O   O68       1.0  0.81386  0.42655  0.43649  1.0000
  C   C278      1.0  0.77402  0.31772  0.36257  1.0000
  H   H138      1.0  0.78423  0.31574  0.39730  1.0000
  C   C279      1.0  0.58734  0.36791  0.37280  1.0000
  C   C280      1.0  0.57201  0.34683  0.36211  1.0000
  H   H139      1.0  0.56022  0.34028  0.40752  1.0000
  C   C281      1.0  0.65927  0.43403  0.34719  1.0000
  C   C282      1.0  0.64698  0.42181  0.41868  1.0000
  N   N105      1.0  0.62918  0.40401  0.40150  1.0000
  H   H140      1.0  0.65178  0.42544  0.48350  1.0000
  N   N106      1.0  0.58618  0.38001  0.44281  1.0000
  O   O69       1.0  0.58659  0.37277  0.51807  1.0000
  O   O70       1.0  0.57003  0.38119  0.43727  1.0000
  C   C283      1.0  0.67883  0.45044  0.36222  1.0000
  H   H141      1.0  0.68081  0.46247  0.39817  1.0000
  C   C284      1.0  0.62848  0.21336  0.37288  1.0000
  C   C285      1.0  0.64956  0.21912  0.36220  1.0000
  H   H142      1.0  0.65612  0.21388  0.40766  1.0000
  C   C286      1.0  0.56234  0.21915  0.34720  1.0000
  C   C287      1.0  0.57456  0.21906  0.41870  1.0000
  N   N107      1.0  0.59238  0.21910  0.40153  1.0000
  H   H143      1.0  0.57097  0.22032  0.48350  1.0000
  N   N108      1.0  0.61637  0.20010  0.44289  1.0000
  O   O71       1.0  0.62362  0.20776  0.51815  1.0000
  O   O72       1.0  0.61520  0.18278  0.43737  1.0000
  C   C288      1.0  0.54596  0.22234  0.36220  1.0000
  H   H144      1.0  0.53407  0.21248  0.39931  1.0000
