data_image0
_chemical_formula_structural       C2OHCHO2C2OHCHO2CH2C4NOC2NOCH2C4NOC2NOC4HC2NC4HC2NC3OHC6O2H2C6O2H3C2H3C2H2C2H2C2H2C3H2C3H2C3H2C3H2C3H2CNO2C4N2O4CO2C4N2O4C4N2O4C4N2O4C3OHC6O2H2C6O2H3C2H3C2H2C2H2C2H2C3H2C3H2C3H2C3H2C3H2CNO2C4N2O4CO2C4N2O4C4N2O4C4N2O4C6O2H2C6O2H2C6O2H2C2H2C2H2C2H2C2H2C2H2C2H2C3H2C3H2C3H2C3H2C3H2C3H2C4N2O4C4N2O4C4N2O4C4N2O4C4N2O4C4N2O4C6O2H2C6O2H2C6O2H2C2H2C2H2C2H2C2H2C2H2C2H2C3H2C3H2C3H2C3H2C3H2C3H2C4N2O4C4N2O4C4N2O4C4N2O4C4N2O4C4N2O4
_chemical_formula_sum              "C288 O120 H120 N48"
_cell_length_a       46.7753
_cell_length_b       46.7752
_cell_length_c       14.9062
_cell_angle_alpha    90
_cell_angle_beta     90
_cell_angle_gamma    120

_space_group_name_H-M_alt    "P 1"
_space_group_IT_number       1

loop_
  _space_group_symop_operation_xyz
  'x, y, z'

loop_
  _atom_site_type_symbol
  _atom_site_label
  _atom_site_symmetry_multiplicity
  _atom_site_fract_x
  _atom_site_fract_y
  _atom_site_fract_z
  _atom_site_occupancy
  C   C1        1.0  0.02267  0.26272  0.35398  1.0000
  C   C2        1.0  0.04153  0.29811  0.34215  1.0000
  O   O1        1.0  0.02806  0.31696  0.31861  1.0000
  H   H1        1.0  0.02300  0.31317  0.25416  1.0000
  C   C3        1.0  0.04237  0.24731  0.36464  1.0000
  H   H2        1.0  0.03194  0.22307  0.38072  1.0000
  O   O2        1.0  0.06591  0.21526  0.51862  1.0000
  O   O3        1.0  0.06245  0.35071  0.50637  1.0000
  C   C4        1.0  0.02267  0.76272  0.35398  1.0000
  C   C5        1.0  0.04153  0.79811  0.34215  1.0000
  O   O4        1.0  0.02806  0.81696  0.31861  1.0000
  H   H3        1.0  0.02300  0.81317  0.25416  1.0000
  C   C6        1.0  0.04237  0.74731  0.36464  1.0000
  H   H4        1.0  0.03194  0.72307  0.38072  1.0000
  O   O5        1.0  0.06591  0.71526  0.51862  1.0000
  O   O6        1.0  0.06245  0.85071  0.50637  1.0000
  C   C7        1.0  0.07659  0.31608  0.34376  1.0000
  H   H5        1.0  0.10595  0.25928  0.21065  1.0000
  H   H6        1.0  0.10866  0.35201  0.20522  1.0000
  C   C8        1.0  0.09365  0.29847  0.34549  1.0000
  C   C9        1.0  0.07700  0.26398  0.35384  1.0000
  C   C10       1.0  0.09630  0.24837  0.34944  1.0000
  C   C11       1.0  0.10921  0.24173  0.42843  1.0000
  N   N1        1.0  0.09507  0.23885  0.51459  1.0000
  O   O7        1.0  0.09621  0.26494  0.54070  1.0000
  C   C12       1.0  0.09631  0.35102  0.34255  1.0000
  C   C13       1.0  0.10810  0.36864  0.42505  1.0000
  N   N2        1.0  0.09158  0.35610  0.50805  1.0000
  O   O8        1.0  0.09175  0.33060  0.53370  1.0000
  C   C14       1.0  0.07659  0.81608  0.34376  1.0000
  H   H7        1.0  0.10595  0.75928  0.21065  1.0000
  H   H8        1.0  0.10866  0.85201  0.20522  1.0000
  C   C15       1.0  0.09365  0.79848  0.34549  1.0000
  C   C16       1.0  0.07700  0.76398  0.35384  1.0000
  C   C17       1.0  0.09630  0.74837  0.34944  1.0000
  C   C18       1.0  0.10921  0.74174  0.42843  1.0000
  N   N3        1.0  0.09506  0.73885  0.51459  1.0000
  O   O9        1.0  0.09621  0.76494  0.54070  1.0000
  C   C19       1.0  0.09631  0.85102  0.34255  1.0000
  C   C20       1.0  0.10810  0.86864  0.42505  1.0000
  N   N4        1.0  0.09158  0.85610  0.50805  1.0000
  O   O10       1.0  0.09175  0.83061  0.53370  1.0000
  C   C21       1.0  0.14272  0.25150  0.26379  1.0000
  C   C22       1.0  0.11313  0.25219  0.26748  1.0000
  C   C23       1.0  0.11502  0.36511  0.26408  1.0000
  C   C24       1.0  0.14529  0.39469  0.26748  1.0000
  H   H9        1.0  0.11902  0.31119  0.34339  1.0000
  C   C25       1.0  0.13932  0.24105  0.42476  1.0000
  C   C26       1.0  0.13892  0.39874  0.42849  1.0000
  N   N5        1.0  0.15017  0.41302  0.51452  1.0000
  C   C27       1.0  0.14272  0.75150  0.26379  1.0000
  C   C28       1.0  0.11313  0.75219  0.26748  1.0000
  C   C29       1.0  0.11502  0.86511  0.26408  1.0000
  C   C30       1.0  0.14529  0.89469  0.26748  1.0000
  H   H10       1.0  0.11902  0.81119  0.34339  1.0000
  C   C31       1.0  0.13932  0.74105  0.42476  1.0000
  C   C32       1.0  0.13892  0.89874  0.42849  1.0000
  N   N6        1.0  0.15017  0.91302  0.51452  1.0000
  C   C33       1.0  0.48680  0.24346  0.35394  1.0000
  C   C34       1.0  0.43287  0.19011  0.34360  1.0000
  C   C35       1.0  0.46793  0.20808  0.34211  1.0000
  O   O11       1.0  0.48141  0.18921  0.31880  1.0000
  H   H11       1.0  0.48648  0.19295  0.25434  1.0000
  C   C36       1.0  0.26441  0.24489  0.35363  1.0000
  C   C37       1.0  0.31772  0.24425  0.34284  1.0000
  C   C38       1.0  0.29979  0.26138  0.34158  1.0000
  C   C39       1.0  0.24517  0.26152  0.35371  1.0000
  C   C40       1.0  0.20978  0.24500  0.34183  1.0000
  C   C41       1.0  0.19182  0.26210  0.34319  1.0000
  O   O12       1.0  0.31867  0.29375  0.31856  1.0000
  O   O13       1.0  0.19092  0.21267  0.31838  1.0000
  H   H12       1.0  0.31497  0.29516  0.25412  1.0000
  H   H13       1.0  0.19470  0.21137  0.25393  1.0000
  C   C42       1.0  0.26295  0.02110  0.35367  1.0000
  C   C43       1.0  0.26355  0.07503  0.34292  1.0000
  C   C44       1.0  0.24644  0.03997  0.34176  1.0000
  C   C45       1.0  0.24634  0.48523  0.35387  1.0000
  C   C46       1.0  0.26288  0.46637  0.34225  1.0000
  C   C47       1.0  0.24582  0.43132  0.34413  1.0000
  O   O14       1.0  0.21408  0.02650  0.31868  1.0000
  O   O15       1.0  0.29521  0.47983  0.31877  1.0000
  H   H14       1.0  0.21268  0.02139  0.25423  1.0000
  H   H15       1.0  0.29649  0.48485  0.25428  1.0000
  H   H16       1.0  0.15585  0.25843  0.20501  1.0000
  C   C48       1.0  0.25676  0.39310  0.26457  1.0000
  C   C49       1.0  0.25606  0.36282  0.26778  1.0000
  H   H17       1.0  0.24912  0.34869  0.21072  1.0000
  H   H18       1.0  0.25003  0.39948  0.20574  1.0000
  H   H19       1.0  0.15951  0.40193  0.21056  1.0000
  C   C50       1.0  0.36688  0.25479  0.26326  1.0000
  C   C51       1.0  0.39644  0.25407  0.26699  1.0000
  H   H20       1.0  0.40373  0.24710  0.21016  1.0000
  H   H21       1.0  0.35379  0.24800  0.20440  1.0000
  C   C52       1.0  0.25280  0.11342  0.26359  1.0000
  C   C53       1.0  0.25353  0.14372  0.26700  1.0000
  H   H22       1.0  0.26052  0.15790  0.21002  1.0000
  H   H23       1.0  0.25958  0.10711  0.20474  1.0000
  C   C54       1.0  0.39451  0.14109  0.26372  1.0000
  C   C55       1.0  0.36418  0.11157  0.26704  1.0000
  H   H24       1.0  0.34996  0.10447  0.21014  1.0000
  H   H25       1.0  0.40083  0.15428  0.20501  1.0000
  C   C56       1.0  0.46711  0.25889  0.36453  1.0000
  C   C57       1.0  0.43248  0.24223  0.35365  1.0000
  C   C58       1.0  0.41582  0.20773  0.34517  1.0000
  H   H26       1.0  0.47754  0.28312  0.38061  1.0000
  H   H27       1.0  0.39046  0.19503  0.34304  1.0000
  C   C59       1.0  0.24897  0.20979  0.36431  1.0000
  C   C60       1.0  0.26558  0.19178  0.35310  1.0000
  C   C61       1.0  0.30006  0.20958  0.34426  1.0000
  H   H28       1.0  0.22475  0.19602  0.38069  1.0000
  H   H29       1.0  0.31273  0.19688  0.34196  1.0000
  C   C62       1.0  0.20945  0.29678  0.34488  1.0000
  C   C63       1.0  0.24393  0.31460  0.35364  1.0000
  C   C64       1.0  0.26059  0.29662  0.36447  1.0000
  H   H30       1.0  0.19675  0.30944  0.34275  1.0000
  H   H31       1.0  0.28482  0.31041  0.38070  1.0000
  C   C65       1.0  0.29806  0.04080  0.36430  1.0000
  C   C66       1.0  0.31605  0.07542  0.35319  1.0000
  C   C67       1.0  0.29823  0.09208  0.34435  1.0000
  H   H32       1.0  0.31186  0.03037  0.38056  1.0000
  H   H33       1.0  0.31089  0.11744  0.34215  1.0000
  C   C68       1.0  0.21115  0.41424  0.34582  1.0000
  C   C69       1.0  0.19329  0.43088  0.35400  1.0000
  C   C70       1.0  0.21123  0.46553  0.36447  1.0000
  H   H34       1.0  0.19851  0.38887  0.34380  1.0000
  H   H35       1.0  0.19740  0.47595  0.38029  1.0000
  C   C71       1.0  0.15689  0.24691  0.34217  1.0000
  N   N7        1.0  0.15190  0.23702  0.50763  1.0000
  O   O16       1.0  0.15724  0.21325  0.50574  1.0000
  O   O17       1.0  0.17743  0.26266  0.53325  1.0000
  C   C72       1.0  0.26105  0.41163  0.34327  1.0000
  C   C73       1.0  0.25951  0.34949  0.34960  1.0000
  C   C74       1.0  0.26591  0.36881  0.42898  1.0000
  C   C75       1.0  0.26661  0.39961  0.42575  1.0000
  N   N8        1.0  0.26860  0.35734  0.51503  1.0000
  N   N9        1.0  0.27029  0.41593  0.50894  1.0000
  O   O18       1.0  0.24245  0.33234  0.54059  1.0000
  O   O19       1.0  0.29397  0.44510  0.50793  1.0000
  O   O20       1.0  0.29219  0.35178  0.51929  1.0000
  O   O21       1.0  0.24449  0.41561  0.53407  1.0000
  C   C76       1.0  0.15840  0.41153  0.34932  1.0000
  O   O22       1.0  0.17514  0.41195  0.54086  1.0000
  O   O23       1.0  0.15568  0.44216  0.51819  1.0000
  C   C77       1.0  0.35264  0.25938  0.34148  1.0000
  C   C78       1.0  0.41319  0.25785  0.34903  1.0000
  C   C79       1.0  0.40030  0.26451  0.42799  1.0000
  C   C80       1.0  0.37021  0.26523  0.42417  1.0000
  N   N10       1.0  0.41441  0.26739  0.51420  1.0000
  N   N11       1.0  0.35766  0.26936  0.50699  1.0000
  O   O24       1.0  0.41323  0.24129  0.54039  1.0000
  O   O25       1.0  0.35242  0.29319  0.50500  1.0000
  O   O26       1.0  0.44357  0.29096  0.51827  1.0000
  O   O27       1.0  0.33210  0.24378  0.53275  1.0000
  C   C81       1.0  0.24836  0.09477  0.34213  1.0000
  C   C82       1.0  0.24992  0.15686  0.34895  1.0000
  C   C83       1.0  0.24342  0.13748  0.42818  1.0000
  C   C84       1.0  0.24270  0.10667  0.42468  1.0000
  N   N12       1.0  0.24073  0.14888  0.51434  1.0000
  N   N13       1.0  0.23886  0.09020  0.50769  1.0000
  O   O28       1.0  0.26690  0.17384  0.54001  1.0000
  O   O29       1.0  0.21509  0.06108  0.50632  1.0000
  O   O30       1.0  0.21718  0.15449  0.51867  1.0000
  O   O31       1.0  0.26455  0.09036  0.53296  1.0000
  C   C85       1.0  0.41314  0.15518  0.34232  1.0000
  C   C86       1.0  0.35095  0.09472  0.34885  1.0000
  C   C87       1.0  0.37042  0.10748  0.42806  1.0000
  C   C88       1.0  0.40127  0.13754  0.42476  1.0000
  N   N14       1.0  0.35907  0.09324  0.51407  1.0000
  N   N15       1.0  0.41776  0.15004  0.50783  1.0000
  O   O32       1.0  0.33411  0.09437  0.54015  1.0000
  O   O33       1.0  0.44687  0.15537  0.50627  1.0000
  O   O34       1.0  0.35352  0.06409  0.51794  1.0000
  O   O35       1.0  0.41763  0.17556  0.53347  1.0000
  C   C89       1.0  0.48680  0.74347  0.35394  1.0000
  C   C90       1.0  0.43287  0.69011  0.34360  1.0000
  C   C91       1.0  0.46793  0.70808  0.34211  1.0000
  O   O36       1.0  0.48141  0.68921  0.31880  1.0000
  H   H36       1.0  0.48648  0.69295  0.25434  1.0000
  C   C92       1.0  0.26441  0.74489  0.35363  1.0000
  C   C93       1.0  0.31772  0.74425  0.34284  1.0000
  C   C94       1.0  0.29979  0.76138  0.34158  1.0000
  C   C95       1.0  0.24517  0.76152  0.35371  1.0000
  C   C96       1.0  0.20978  0.74500  0.34183  1.0000
  C   C97       1.0  0.19182  0.76211  0.34319  1.0000
  O   O37       1.0  0.31867  0.79375  0.31856  1.0000
  O   O38       1.0  0.19092  0.71267  0.31838  1.0000
  H   H37       1.0  0.31497  0.79516  0.25412  1.0000
  H   H38       1.0  0.19470  0.71137  0.25393  1.0000
  C   C98       1.0  0.26295  0.52111  0.35367  1.0000
  C   C99       1.0  0.26355  0.57503  0.34292  1.0000
  C   C100      1.0  0.24644  0.53997  0.34176  1.0000
  C   C101      1.0  0.24634  0.98523  0.35387  1.0000
  C   C102      1.0  0.26288  0.96638  0.34225  1.0000
  C   C103      1.0  0.24582  0.93132  0.34413  1.0000
  O   O39       1.0  0.21408  0.52650  0.31868  1.0000
  O   O40       1.0  0.29521  0.97984  0.31877  1.0000
  H   H39       1.0  0.21268  0.52139  0.25423  1.0000
  H   H40       1.0  0.29649  0.98485  0.25428  1.0000
  H   H41       1.0  0.15585  0.75843  0.20501  1.0000
  C   C104      1.0  0.25676  0.89310  0.26457  1.0000
  C   C105      1.0  0.25606  0.86282  0.26778  1.0000
  H   H42       1.0  0.24912  0.84869  0.21072  1.0000
  H   H43       1.0  0.25003  0.89948  0.20574  1.0000
  H   H44       1.0  0.15951  0.90193  0.21056  1.0000
  C   C106      1.0  0.36688  0.75479  0.26326  1.0000
  C   C107      1.0  0.39644  0.75407  0.26699  1.0000
  H   H45       1.0  0.40373  0.74710  0.21016  1.0000
  H   H46       1.0  0.35379  0.74800  0.20440  1.0000
  C   C108      1.0  0.25280  0.61342  0.26359  1.0000
  C   C109      1.0  0.25353  0.64372  0.26700  1.0000
  H   H47       1.0  0.26052  0.65790  0.21002  1.0000
  H   H48       1.0  0.25958  0.60711  0.20474  1.0000
  C   C110      1.0  0.39451  0.64110  0.26372  1.0000
  C   C111      1.0  0.36418  0.61157  0.26704  1.0000
  H   H49       1.0  0.34996  0.60447  0.21014  1.0000
  H   H50       1.0  0.40083  0.65428  0.20501  1.0000
  C   C112      1.0  0.46711  0.75889  0.36453  1.0000
  C   C113      1.0  0.43248  0.74223  0.35365  1.0000
  C   C114      1.0  0.41582  0.70773  0.34517  1.0000
  H   H51       1.0  0.47754  0.78312  0.38061  1.0000
  H   H52       1.0  0.39046  0.69503  0.34304  1.0000
  C   C115      1.0  0.24897  0.70979  0.36431  1.0000
  C   C116      1.0  0.26558  0.69178  0.35310  1.0000
  C   C117      1.0  0.30006  0.70958  0.34426  1.0000
  H   H53       1.0  0.22475  0.69602  0.38069  1.0000
  H   H54       1.0  0.31273  0.69688  0.34196  1.0000
  C   C118      1.0  0.20945  0.79678  0.34488  1.0000
  C   C119      1.0  0.24393  0.81460  0.35364  1.0000
  C   C120      1.0  0.26059  0.79662  0.36447  1.0000
  H   H55       1.0  0.19675  0.80944  0.34275  1.0000
  H   H56       1.0  0.28482  0.81041  0.38070  1.0000
  C   C121      1.0  0.29806  0.54080  0.36430  1.0000
  C   C122      1.0  0.31605  0.57542  0.35319  1.0000
  C   C123      1.0  0.29823  0.59208  0.34435  1.0000
  H   H57       1.0  0.31186  0.53037  0.38056  1.0000
  H   H58       1.0  0.31089  0.61744  0.34215  1.0000
  C   C124      1.0  0.21115  0.91424  0.34582  1.0000
  C   C125      1.0  0.19329  0.93088  0.35400  1.0000
  C   C126      1.0  0.21123  0.96553  0.36447  1.0000
  H   H59       1.0  0.19851  0.88887  0.34380  1.0000
  H   H60       1.0  0.19740  0.97595  0.38029  1.0000
  C   C127      1.0  0.15689  0.74691  0.34217  1.0000
  N   N16       1.0  0.15190  0.73702  0.50763  1.0000
  O   O41       1.0  0.15725  0.71325  0.50574  1.0000
  O   O42       1.0  0.17743  0.76266  0.53325  1.0000
  C   C128      1.0  0.26105  0.91163  0.34327  1.0000
  C   C129      1.0  0.25951  0.84949  0.34960  1.0000
  C   C130      1.0  0.26591  0.86881  0.42898  1.0000
  C   C131      1.0  0.26661  0.89962  0.42575  1.0000
  N   N17       1.0  0.26860  0.85734  0.51503  1.0000
  N   N18       1.0  0.27028  0.91594  0.50894  1.0000
  O   O43       1.0  0.24245  0.83234  0.54059  1.0000
  O   O44       1.0  0.29397  0.94510  0.50792  1.0000
  O   O45       1.0  0.29219  0.85178  0.51928  1.0000
  O   O46       1.0  0.24449  0.91561  0.53407  1.0000
  C   C132      1.0  0.15840  0.91154  0.34932  1.0000
  O   O47       1.0  0.17514  0.91195  0.54085  1.0000
  O   O48       1.0  0.15568  0.94216  0.51819  1.0000
  C   C133      1.0  0.35264  0.75938  0.34148  1.0000
  C   C134      1.0  0.41319  0.75785  0.34903  1.0000
  C   C135      1.0  0.40030  0.76451  0.42799  1.0000
  C   C136      1.0  0.37021  0.76523  0.42417  1.0000
  N   N19       1.0  0.41441  0.76739  0.51420  1.0000
  N   N20       1.0  0.35766  0.76936  0.50699  1.0000
  O   O49       1.0  0.41323  0.74130  0.54039  1.0000
  O   O50       1.0  0.35242  0.79319  0.50500  1.0000
  O   O51       1.0  0.44357  0.79096  0.51827  1.0000
  O   O52       1.0  0.33210  0.74378  0.53275  1.0000
  C   C137      1.0  0.24836  0.59477  0.34213  1.0000
  C   C138      1.0  0.24992  0.65686  0.34895  1.0000
  C   C139      1.0  0.24342  0.63748  0.42818  1.0000
  C   C140      1.0  0.24270  0.60667  0.42468  1.0000
  N   N21       1.0  0.24073  0.64889  0.51434  1.0000
  N   N22       1.0  0.23886  0.59020  0.50769  1.0000
  O   O53       1.0  0.26690  0.67384  0.54001  1.0000
  O   O54       1.0  0.21509  0.56108  0.50632  1.0000
  O   O55       1.0  0.21718  0.65449  0.51867  1.0000
  O   O56       1.0  0.26455  0.59036  0.53296  1.0000
  C   C141      1.0  0.41314  0.65518  0.34232  1.0000
  C   C142      1.0  0.35095  0.59472  0.34885  1.0000
  C   C143      1.0  0.37042  0.60749  0.42806  1.0000
  C   C144      1.0  0.40127  0.63754  0.42476  1.0000
  N   N23       1.0  0.35907  0.59324  0.51407  1.0000
  N   N24       1.0  0.41776  0.65004  0.50783  1.0000
  O   O57       1.0  0.33411  0.59437  0.54015  1.0000
  O   O58       1.0  0.44687  0.65537  0.50627  1.0000
  O   O59       1.0  0.35352  0.56409  0.51794  1.0000
  O   O60       1.0  0.41763  0.67556  0.53347  1.0000
  C   C145      1.0  0.98680  0.24346  0.35394  1.0000
  C   C146      1.0  0.93287  0.19011  0.34360  1.0000
  C   C147      1.0  0.96793  0.20808  0.34211  1.0000
  C   C148      1.0  0.52267  0.26272  0.35398  1.0000
  C   C149      1.0  0.54153  0.29811  0.34215  1.0000
  C   C150      1.0  0.57659  0.31608  0.34376  1.0000
  O   O61       1.0  0.98141  0.18921  0.31880  1.0000
  O   O62       1.0  0.52806  0.31696  0.31861  1.0000
  H   H61       1.0  0.98648  0.19295  0.25434  1.0000
  H   H62       1.0  0.52300  0.31317  0.25416  1.0000
  C   C151      1.0  0.76441  0.24489  0.35363  1.0000
  C   C152      1.0  0.81772  0.24425  0.34284  1.0000
  C   C153      1.0  0.79979  0.26138  0.34158  1.0000
  C   C154      1.0  0.74517  0.26152  0.35371  1.0000
  C   C155      1.0  0.70978  0.24500  0.34183  1.0000
  C   C156      1.0  0.69182  0.26210  0.34319  1.0000
  O   O63       1.0  0.81867  0.29375  0.31856  1.0000
  O   O64       1.0  0.69092  0.21267  0.31838  1.0000
  H   H63       1.0  0.81497  0.29516  0.25412  1.0000
  H   H64       1.0  0.69470  0.21137  0.25393  1.0000
  C   C157      1.0  0.76296  0.02110  0.35367  1.0000
  C   C158      1.0  0.76355  0.07503  0.34292  1.0000
  C   C159      1.0  0.74644  0.03997  0.34176  1.0000
  C   C160      1.0  0.74634  0.48523  0.35387  1.0000
  C   C161      1.0  0.76289  0.46637  0.34225  1.0000
  C   C162      1.0  0.74582  0.43132  0.34413  1.0000
  O   O65       1.0  0.71408  0.02650  0.31868  1.0000
  O   O66       1.0  0.79521  0.47983  0.31877  1.0000
  H   H65       1.0  0.71268  0.02139  0.25423  1.0000
  H   H66       1.0  0.79649  0.48485  0.25428  1.0000
  C   C163      1.0  0.64272  0.25150  0.26379  1.0000
  C   C164      1.0  0.61313  0.25219  0.26748  1.0000
  H   H67       1.0  0.60595  0.25928  0.21065  1.0000
  H   H68       1.0  0.65585  0.25843  0.20501  1.0000
  C   C165      1.0  0.75676  0.39310  0.26457  1.0000
  C   C166      1.0  0.75606  0.36282  0.26778  1.0000
  H   H69       1.0  0.74912  0.34869  0.21072  1.0000
  H   H70       1.0  0.75003  0.39948  0.20574  1.0000
  C   C167      1.0  0.61502  0.36511  0.26408  1.0000
  C   C168      1.0  0.64529  0.39469  0.26748  1.0000
  H   H71       1.0  0.65951  0.40193  0.21056  1.0000
  H   H72       1.0  0.60866  0.35201  0.20522  1.0000
  C   C169      1.0  0.86688  0.25479  0.26326  1.0000
  C   C170      1.0  0.89644  0.25407  0.26699  1.0000
  H   H73       1.0  0.90373  0.24710  0.21016  1.0000
  H   H74       1.0  0.85379  0.24800  0.20440  1.0000
  C   C171      1.0  0.75280  0.11342  0.26359  1.0000
  C   C172      1.0  0.75353  0.14372  0.26700  1.0000
  H   H75       1.0  0.76052  0.15790  0.21002  1.0000
  H   H76       1.0  0.75958  0.10711  0.20474  1.0000
  C   C173      1.0  0.89451  0.14109  0.26372  1.0000
  C   C174      1.0  0.86418  0.11157  0.26704  1.0000
  H   H77       1.0  0.84996  0.10447  0.21014  1.0000
  H   H78       1.0  0.90083  0.15428  0.20501  1.0000
  C   C175      1.0  0.96711  0.25889  0.36453  1.0000
  C   C176      1.0  0.93248  0.24223  0.35365  1.0000
  C   C177      1.0  0.91582  0.20773  0.34517  1.0000
  H   H79       1.0  0.97754  0.28312  0.38061  1.0000
  H   H80       1.0  0.89045  0.19503  0.34304  1.0000
  C   C178      1.0  0.59365  0.29847  0.34549  1.0000
  C   C179      1.0  0.57700  0.26398  0.35384  1.0000
  C   C180      1.0  0.54237  0.24731  0.36464  1.0000
  H   H81       1.0  0.61902  0.31119  0.34339  1.0000
  H   H82       1.0  0.53194  0.22307  0.38072  1.0000
  C   C181      1.0  0.74897  0.20979  0.36431  1.0000
  C   C182      1.0  0.76557  0.19178  0.35310  1.0000
  C   C183      1.0  0.80006  0.20958  0.34426  1.0000
  H   H83       1.0  0.72475  0.19602  0.38069  1.0000
  H   H84       1.0  0.81273  0.19688  0.34196  1.0000
  C   C184      1.0  0.70945  0.29678  0.34488  1.0000
  C   C185      1.0  0.74393  0.31460  0.35364  1.0000
  C   C186      1.0  0.76059  0.29662  0.36447  1.0000
  H   H85       1.0  0.69675  0.30944  0.34275  1.0000
  H   H86       1.0  0.78482  0.31041  0.38070  1.0000
  C   C187      1.0  0.79807  0.04080  0.36430  1.0000
  C   C188      1.0  0.81605  0.07542  0.35319  1.0000
  C   C189      1.0  0.79822  0.09208  0.34435  1.0000
  H   H87       1.0  0.81186  0.03037  0.38056  1.0000
  H   H88       1.0  0.81089  0.11744  0.34215  1.0000
  C   C190      1.0  0.71115  0.41424  0.34582  1.0000
  C   C191      1.0  0.69329  0.43088  0.35400  1.0000
  C   C192      1.0  0.71123  0.46553  0.36447  1.0000
  H   H89       1.0  0.69851  0.38887  0.34380  1.0000
  H   H90       1.0  0.69740  0.47595  0.38029  1.0000
  C   C193      1.0  0.65689  0.24691  0.34217  1.0000
  C   C194      1.0  0.59630  0.24837  0.34944  1.0000
  C   C195      1.0  0.60921  0.24173  0.42843  1.0000
  C   C196      1.0  0.63932  0.24105  0.42476  1.0000
  N   N25       1.0  0.59506  0.23885  0.51459  1.0000
  N   N26       1.0  0.65190  0.23702  0.50763  1.0000
  O   O67       1.0  0.59621  0.26494  0.54070  1.0000
  O   O68       1.0  0.65724  0.21325  0.50574  1.0000
  O   O69       1.0  0.56591  0.21526  0.51862  1.0000
  O   O70       1.0  0.67743  0.26266  0.53325  1.0000
  C   C197      1.0  0.76105  0.41163  0.34327  1.0000
  C   C198      1.0  0.75952  0.34949  0.34960  1.0000
  C   C199      1.0  0.76591  0.36881  0.42898  1.0000
  C   C200      1.0  0.76661  0.39961  0.42575  1.0000
  N   N27       1.0  0.76860  0.35734  0.51503  1.0000
  N   N28       1.0  0.77028  0.41593  0.50894  1.0000
  O   O71       1.0  0.74245  0.33234  0.54059  1.0000
  O   O72       1.0  0.79397  0.44510  0.50793  1.0000
  O   O73       1.0  0.79219  0.35178  0.51929  1.0000
  O   O74       1.0  0.74449  0.41561  0.53407  1.0000
  C   C201      1.0  0.59631  0.35102  0.34255  1.0000
  C   C202      1.0  0.65840  0.41153  0.34932  1.0000
  C   C203      1.0  0.63892  0.39874  0.42849  1.0000
  C   C204      1.0  0.60810  0.36864  0.42505  1.0000
  N   N29       1.0  0.65017  0.41302  0.51452  1.0000
  N   N30       1.0  0.59158  0.35610  0.50805  1.0000
  O   O75       1.0  0.67514  0.41195  0.54086  1.0000
  O   O76       1.0  0.56245  0.35071  0.50637  1.0000
  O   O77       1.0  0.65568  0.44216  0.51819  1.0000
  O   O78       1.0  0.59175  0.33060  0.53370  1.0000
  C   C205      1.0  0.85264  0.25938  0.34148  1.0000
  C   C206      1.0  0.91319  0.25785  0.34903  1.0000
  C   C207      1.0  0.90030  0.26451  0.42799  1.0000
  C   C208      1.0  0.87021  0.26523  0.42417  1.0000
  N   N31       1.0  0.91441  0.26739  0.51420  1.0000
  N   N32       1.0  0.85766  0.26936  0.50699  1.0000
  O   O79       1.0  0.91323  0.24129  0.54039  1.0000
  O   O80       1.0  0.85242  0.29319  0.50500  1.0000
  O   O81       1.0  0.94357  0.29096  0.51827  1.0000
  O   O82       1.0  0.83210  0.24378  0.53275  1.0000
  C   C209      1.0  0.74836  0.09477  0.34213  1.0000
  C   C210      1.0  0.74992  0.15686  0.34895  1.0000
  C   C211      1.0  0.74342  0.13748  0.42818  1.0000
  C   C212      1.0  0.74270  0.10667  0.42468  1.0000
  N   N33       1.0  0.74073  0.14888  0.51434  1.0000
  N   N34       1.0  0.73886  0.09020  0.50769  1.0000
  O   O83       1.0  0.76690  0.17384  0.54001  1.0000
  O   O84       1.0  0.71509  0.06108  0.50632  1.0000
  O   O85       1.0  0.71718  0.15449  0.51867  1.0000
  O   O86       1.0  0.76456  0.09036  0.53296  1.0000
  C   C213      1.0  0.91314  0.15518  0.34232  1.0000
  C   C214      1.0  0.85095  0.09472  0.34885  1.0000
  C   C215      1.0  0.87042  0.10748  0.42806  1.0000
  C   C216      1.0  0.90127  0.13754  0.42476  1.0000
  N   N35       1.0  0.85907  0.09324  0.51407  1.0000
  N   N36       1.0  0.91776  0.15004  0.50783  1.0000
  O   O87       1.0  0.83411  0.09437  0.54015  1.0000
  O   O88       1.0  0.94687  0.15537  0.50627  1.0000
  O   O89       1.0  0.85352  0.06409  0.51794  1.0000
  O   O90       1.0  0.91763  0.17556  0.53347  1.0000
  C   C217      1.0  0.98680  0.74347  0.35394  1.0000
  C   C218      1.0  0.93287  0.69011  0.34360  1.0000
  C   C219      1.0  0.96793  0.70808  0.34211  1.0000
  C   C220      1.0  0.52267  0.76272  0.35398  1.0000
  C   C221      1.0  0.54153  0.79811  0.34215  1.0000
  C   C222      1.0  0.57659  0.81608  0.34376  1.0000
  O   O91       1.0  0.98141  0.68921  0.31880  1.0000
  O   O92       1.0  0.52806  0.81696  0.31861  1.0000
  H   H91       1.0  0.98648  0.69295  0.25434  1.0000
  H   H92       1.0  0.52300  0.81317  0.25416  1.0000
  C   C223      1.0  0.76441  0.74489  0.35363  1.0000
  C   C224      1.0  0.81772  0.74425  0.34284  1.0000
  C   C225      1.0  0.79979  0.76138  0.34158  1.0000
  C   C226      1.0  0.74516  0.76152  0.35371  1.0000
  C   C227      1.0  0.70978  0.74500  0.34183  1.0000
  C   C228      1.0  0.69182  0.76211  0.34319  1.0000
  O   O93       1.0  0.81867  0.79375  0.31856  1.0000
  O   O94       1.0  0.69092  0.71267  0.31838  1.0000
  H   H93       1.0  0.81497  0.79516  0.25412  1.0000
  H   H94       1.0  0.69470  0.71137  0.25393  1.0000
  C   C229      1.0  0.76296  0.52111  0.35367  1.0000
  C   C230      1.0  0.76355  0.57503  0.34292  1.0000
  C   C231      1.0  0.74644  0.53997  0.34176  1.0000
  C   C232      1.0  0.74634  0.98523  0.35387  1.0000
  C   C233      1.0  0.76289  0.96638  0.34225  1.0000
  C   C234      1.0  0.74582  0.93132  0.34413  1.0000
  O   O95       1.0  0.71408  0.52650  0.31868  1.0000
  O   O96       1.0  0.79521  0.97984  0.31877  1.0000
  H   H95       1.0  0.71268  0.52139  0.25423  1.0000
  H   H96       1.0  0.79649  0.98485  0.25428  1.0000
  C   C235      1.0  0.64272  0.75150  0.26379  1.0000
  C   C236      1.0  0.61313  0.75219  0.26748  1.0000
  H   H97       1.0  0.60595  0.75928  0.21065  1.0000
  H   H98       1.0  0.65585  0.75843  0.20501  1.0000
  C   C237      1.0  0.75676  0.89310  0.26457  1.0000
  C   C238      1.0  0.75607  0.86282  0.26778  1.0000
  H   H99       1.0  0.74912  0.84869  0.21072  1.0000
  H   H100      1.0  0.75003  0.89948  0.20574  1.0000
  C   C239      1.0  0.61502  0.86511  0.26408  1.0000
  C   C240      1.0  0.64529  0.89469  0.26748  1.0000
  H   H101      1.0  0.65951  0.90193  0.21056  1.0000
  H   H102      1.0  0.60865  0.85201  0.20522  1.0000
  C   C241      1.0  0.86688  0.75479  0.26326  1.0000
  C   C242      1.0  0.89644  0.75407  0.26699  1.0000
  H   H103      1.0  0.90373  0.74710  0.21016  1.0000
  H   H104      1.0  0.85379  0.74800  0.20440  1.0000
  C   C243      1.0  0.75280  0.61342  0.26359  1.0000
  C   C244      1.0  0.75353  0.64372  0.26700  1.0000
  H   H105      1.0  0.76052  0.65790  0.21002  1.0000
  H   H106      1.0  0.75958  0.60711  0.20474  1.0000
  C   C245      1.0  0.89451  0.64110  0.26372  1.0000
  C   C246      1.0  0.86418  0.61157  0.26704  1.0000
  H   H107      1.0  0.84996  0.60447  0.21014  1.0000
  H   H108      1.0  0.90083  0.65428  0.20501  1.0000
  C   C247      1.0  0.96711  0.75889  0.36453  1.0000
  C   C248      1.0  0.93248  0.74223  0.35365  1.0000
  C   C249      1.0  0.91582  0.70773  0.34517  1.0000
  H   H109      1.0  0.97754  0.78312  0.38061  1.0000
  H   H110      1.0  0.89045  0.69503  0.34304  1.0000
  C   C250      1.0  0.59365  0.79848  0.34549  1.0000
  C   C251      1.0  0.57700  0.76398  0.35384  1.0000
  C   C252      1.0  0.54237  0.74731  0.36464  1.0000
  H   H111      1.0  0.61902  0.81119  0.34339  1.0000
  H   H112      1.0  0.53194  0.72307  0.38072  1.0000
  C   C253      1.0  0.74897  0.70979  0.36431  1.0000
  C   C254      1.0  0.76557  0.69178  0.35310  1.0000
  C   C255      1.0  0.80006  0.70958  0.34426  1.0000
  H   H113      1.0  0.72475  0.69602  0.38069  1.0000
  H   H114      1.0  0.81273  0.69688  0.34196  1.0000
  C   C256      1.0  0.70945  0.79678  0.34488  1.0000
  C   C257      1.0  0.74393  0.81460  0.35364  1.0000
  C   C258      1.0  0.76059  0.79662  0.36447  1.0000
  H   H115      1.0  0.69675  0.80944  0.34275  1.0000
  H   H116      1.0  0.78482  0.81041  0.38070  1.0000
  C   C259      1.0  0.79806  0.54080  0.36430  1.0000
  C   C260      1.0  0.81605  0.57542  0.35319  1.0000
  C   C261      1.0  0.79822  0.59208  0.34435  1.0000
  H   H117      1.0  0.81186  0.53037  0.38056  1.0000
  H   H118      1.0  0.81089  0.61744  0.34215  1.0000
  C   C262      1.0  0.71115  0.91424  0.34582  1.0000
  C   C263      1.0  0.69329  0.93088  0.35400  1.0000
  C   C264      1.0  0.71123  0.96553  0.36447  1.0000
  H   H119      1.0  0.69851  0.88887  0.34380  1.0000
  H   H120      1.0  0.69740  0.97595  0.38029  1.0000
  C   C265      1.0  0.65689  0.74691  0.34217  1.0000
  C   C266      1.0  0.59630  0.74837  0.34944  1.0000
  C   C267      1.0  0.60921  0.74174  0.42843  1.0000
  C   C268      1.0  0.63932  0.74105  0.42476  1.0000
  N   N37       1.0  0.59506  0.73885  0.51459  1.0000
  N   N38       1.0  0.65190  0.73702  0.50763  1.0000
  O   O97       1.0  0.59621  0.76494  0.54070  1.0000
  O   O98       1.0  0.65725  0.71325  0.50574  1.0000
  O   O99       1.0  0.56591  0.71526  0.51862  1.0000
  O   O100      1.0  0.67743  0.76266  0.53325  1.0000
  C   C269      1.0  0.76105  0.91163  0.34327  1.0000
  C   C270      1.0  0.75952  0.84949  0.34960  1.0000
  C   C271      1.0  0.76591  0.86881  0.42898  1.0000
  C   C272      1.0  0.76661  0.89962  0.42575  1.0000
  N   N39       1.0  0.76860  0.85734  0.51503  1.0000
  N   N40       1.0  0.77028  0.91594  0.50894  1.0000
  O   O101      1.0  0.74245  0.83234  0.54059  1.0000
  O   O102      1.0  0.79397  0.94510  0.50792  1.0000
  O   O103      1.0  0.79219  0.85178  0.51928  1.0000
  O   O104      1.0  0.74449  0.91561  0.53407  1.0000
  C   C273      1.0  0.59631  0.85102  0.34255  1.0000
  C   C274      1.0  0.65840  0.91154  0.34932  1.0000
  C   C275      1.0  0.63892  0.89874  0.42849  1.0000
  C   C276      1.0  0.60810  0.86864  0.42505  1.0000
  N   N41       1.0  0.65017  0.91302  0.51452  1.0000
  N   N42       1.0  0.59158  0.85610  0.50805  1.0000
  O   O105      1.0  0.67513  0.91195  0.54085  1.0000
  O   O106      1.0  0.56245  0.85071  0.50637  1.0000
  O   O107      1.0  0.65568  0.94216  0.51819  1.0000
  O   O108      1.0  0.59175  0.83061  0.53370  1.0000
  C   C277      1.0  0.85264  0.75938  0.34148  1.0000
  C   C278      1.0  0.91319  0.75785  0.34903  1.0000
  C   C279      1.0  0.90030  0.76451  0.42799  1.0000
  C   C280      1.0  0.87021  0.76523  0.42417  1.0000
  N   N43       1.0  0.91441  0.76739  0.51420  1.0000
  N   N44       1.0  0.85766  0.76936  0.50699  1.0000
  O   O109      1.0  0.91323  0.74130  0.54039  1.0000
  O   O110      1.0  0.85242  0.79319  0.50500  1.0000
  O   O111      1.0  0.94357  0.79096  0.51827  1.0000
  O   O112      1.0  0.83210  0.74378  0.53275  1.0000
  C   C281      1.0  0.74836  0.59477  0.34213  1.0000
  C   C282      1.0  0.74992  0.65686  0.34895  1.0000
  C   C283      1.0  0.74342  0.63748  0.42818  1.0000
  C   C284      1.0  0.74270  0.60667  0.42468  1.0000
  N   N45       1.0  0.74073  0.64889  0.51434  1.0000
  N   N46       1.0  0.73886  0.59020  0.50769  1.0000
  O   O113      1.0  0.76690  0.67384  0.54001  1.0000
  O   O114      1.0  0.71509  0.56108  0.50632  1.0000
  O   O115      1.0  0.71718  0.65449  0.51867  1.0000
  O   O116      1.0  0.76456  0.59036  0.53296  1.0000
  C   C285      1.0  0.91314  0.65518  0.34232  1.0000
  C   C286      1.0  0.85095  0.59472  0.34885  1.0000
  C   C287      1.0  0.87042  0.60749  0.42806  1.0000
  C   C288      1.0  0.90127  0.63754  0.42476  1.0000
  N   N47       1.0  0.85907  0.59324  0.51407  1.0000
  N   N48       1.0  0.91776  0.65004  0.50783  1.0000
  O   O117      1.0  0.83411  0.59437  0.54015  1.0000
  O   O118      1.0  0.94687  0.65537  0.50627  1.0000
  O   O119      1.0  0.85352  0.56409  0.51794  1.0000
  O   O120      1.0  0.91763  0.67556  0.53347  1.0000
