data_image0
_chemical_formula_structural       C3NOCH3CNHCNHCNHC3NOCH3C3NOCH3C3NOCH3C3NOCH3CNHCNHC3NOCH3C3NOCH3CNHCNHC3NOCH3C3NOCH3CNHCNHC3NOCH3C3NOCH3CNHCNHCNHC3NOCH3CNCNCNCNCNCNCNCNCNCNCNCNCNCNCNCNCNCNCNCNCNCNCNCNCNCNCNCNCNCNCNCNCNCNCNCNCNCNCNCNCNCNCNCNCNCNCNCNCNHC3NOCH3C3NOCH3C3NOCH3CNHCNHCNHCNHC3NOCH3C3NOCH3CNHCNHC3NOCH3C3NOCH3CNHCNHC3NOCH3C3NOCH3CNHCNHC3NOCH3C3NOCH3C3NOCH3CNH
_chemical_formula_sum              "C168 N96 O24 H96"
_cell_length_a       53.9072
_cell_length_b       27.7934
_cell_length_c       14.8662
_cell_angle_alpha    90
_cell_angle_beta     90
_cell_angle_gamma    90

_space_group_name_H-M_alt    "P 1"
_space_group_IT_number       1

loop_
  _space_group_symop_operation_xyz
  'x, y, z'

loop_
  _atom_site_type_symbol
  _atom_site_label
  _atom_site_symmetry_multiplicity
  _atom_site_fract_x
  _atom_site_fract_y
  _atom_site_fract_z
  _atom_site_occupancy
  C   C1        1.0  0.51989  0.46567  0.32271  1.0000
  C   C2        1.0  0.49426  0.45804  0.34247  1.0000
  C   C3        1.0  0.51668  0.54942  0.35275  1.0000
  N   N1        1.0  0.53005  0.51022  0.32915  1.0000
  O   O1        1.0  0.53579  0.43014  0.29537  1.0000
  C   C4        1.0  0.53807  0.42686  0.19909  1.0000
  H   H1        1.0  0.52020  0.41931  0.16721  1.0000
  H   H2        1.0  0.55062  0.39726  0.18361  1.0000
  H   H3        1.0  0.54588  0.45979  0.17067  1.0000
  C   C5        1.0  0.02826  0.99972  0.31885  1.0000
  N   N2        1.0  0.01695  0.04333  0.31523  1.0000
  H   H4        1.0  0.04679  0.99800  0.30474  1.0000
  C   C6        1.0  0.39048  0.28762  0.31247  1.0000
  N   N3        1.0  0.41448  0.30194  0.31038  1.0000
  H   H5        1.0  0.38686  0.25239  0.29818  1.0000
  C   C7        1.0  0.61902  0.72018  0.31732  1.0000
  N   N4        1.0  0.59499  0.70588  0.31726  1.0000
  H   H6        1.0  0.62254  0.75545  0.30312  1.0000
  C   C8        1.0  0.12977  0.86814  0.33252  1.0000
  C   C9        1.0  0.13778  0.82035  0.35139  1.0000
  C   C10       1.0  0.08715  0.84781  0.35734  1.0000
  N   N5        1.0  0.10520  0.88015  0.33656  1.0000
  O   O2        1.0  0.14603  0.90397  0.31023  1.0000
  C   C11       1.0  0.14895  0.90985  0.21467  1.0000
  H   H7        1.0  0.15606  0.87708  0.18310  1.0000
  H   H8        1.0  0.16236  0.93855  0.20318  1.0000
  H   H9        1.0  0.13149  0.92015  0.18271  1.0000
  C   C12       1.0  0.87843  0.13953  0.32933  1.0000
  C   C13       1.0  0.87058  0.18739  0.34826  1.0000
  C   C14       1.0  0.92120  0.15989  0.35021  1.0000
  N   N6        1.0  0.90301  0.12751  0.33141  1.0000
  O   O3        1.0  0.86203  0.10367  0.30854  1.0000
  C   C15       1.0  0.85864  0.09747  0.21326  1.0000
  H   H10       1.0  0.85142  0.13017  0.18174  1.0000
  H   H11       1.0  0.84513  0.06881  0.20300  1.0000
  H   H12       1.0  0.87592  0.08697  0.18031  1.0000
  C   C16       1.0  0.51372  0.21623  0.23039  1.0000
  C   C17       1.0  0.53561  0.20988  0.28207  1.0000
  C   C18       1.0  0.50509  0.28989  0.30359  1.0000
  N   N7        1.0  0.49898  0.25487  0.24443  1.0000
  O   O4        1.0  0.50563  0.18301  0.16942  1.0000
  C   C19       1.0  0.51482  0.19194  0.08017  1.0000
  H   H13       1.0  0.50859  0.22685  0.05483  1.0000
  H   H14       1.0  0.50752  0.16412  0.03577  1.0000
  H   H15       1.0  0.53506  0.19021  0.07785  1.0000
  C   C20       1.0  0.49984  0.79953  0.27970  1.0000
  C   C21       1.0  0.47575  0.80179  0.31863  1.0000
  C   C22       1.0  0.50467  0.71850  0.32609  1.0000
  N   N8        1.0  0.51345  0.75895  0.28688  1.0000
  O   O5        1.0  0.51156  0.83769  0.23988  1.0000
  C   C23       1.0  0.50686  0.84087  0.14491  1.0000
  H   H16       1.0  0.51358  0.80895  0.10952  1.0000
  H   H17       1.0  0.51680  0.87206  0.11893  1.0000
  H   H18       1.0  0.48712  0.84586  0.13097  1.0000
  C   C24       1.0  0.96672  0.74810  0.34521  1.0000
  N   N9        1.0  0.98209  0.78652  0.33560  1.0000
  H   H19       1.0  0.95158  0.74561  0.30410  1.0000
  C   C25       1.0  0.04254  0.25839  0.32942  1.0000
  N   N10       1.0  0.02791  0.21853  0.32579  1.0000
  H   H20       1.0  0.05956  0.25726  0.29925  1.0000
  C   C26       1.0  0.33117  0.15543  0.30404  1.0000
  C   C27       1.0  0.31208  0.18820  0.32843  1.0000
  C   C28       1.0  0.30515  0.08656  0.33033  1.0000
  N   N11       1.0  0.32709  0.10737  0.30754  1.0000
  O   O6        1.0  0.35451  0.16906  0.27842  1.0000
  C   C29       1.0  0.35731  0.17226  0.18236  1.0000
  H   H21       1.0  0.35419  0.13749  0.15000  1.0000
  H   H22       1.0  0.37627  0.18346  0.16793  1.0000
  H   H23       1.0  0.34473  0.19902  0.15356  1.0000
  C   C30       1.0  0.67814  0.85201  0.30260  1.0000
  C   C31       1.0  0.69729  0.81966  0.32824  1.0000
  C   C32       1.0  0.70378  0.92132  0.32938  1.0000
  N   N12       1.0  0.68202  0.90012  0.30572  1.0000
  O   O7        1.0  0.65495  0.83794  0.27610  1.0000
  C   C33       1.0  0.65251  0.83410  0.18000  1.0000
  H   H24       1.0  0.65561  0.86873  0.14704  1.0000
  H   H25       1.0  0.63365  0.82251  0.16493  1.0000
  H   H26       1.0  0.66531  0.80737  0.15239  1.0000
  C   C34       1.0  0.21998  0.66618  0.33474  1.0000
  N   N13       1.0  0.22278  0.61717  0.33381  1.0000
  H   H27       1.0  0.23484  0.68681  0.31660  1.0000
  C   C35       1.0  0.78881  0.34206  0.33429  1.0000
  N   N14       1.0  0.78622  0.39111  0.33369  1.0000
  H   H28       1.0  0.77392  0.32170  0.31540  1.0000
  C   C36       1.0  0.28633  0.40699  0.32498  1.0000
  C   C37       1.0  0.28265  0.35673  0.33906  1.0000
  C   C38       1.0  0.24326  0.42420  0.34502  1.0000
  N   N15       1.0  0.26694  0.43847  0.32927  1.0000
  O   O8        1.0  0.30908  0.42650  0.30683  1.0000
  C   C39       1.0  0.31373  0.43197  0.21207  1.0000
  H   H29       1.0  0.31316  0.39737  0.17709  1.0000
  H   H30       1.0  0.33227  0.44702  0.20383  1.0000
  H   H31       1.0  0.30048  0.45664  0.18108  1.0000
  C   C40       1.0  0.72343  0.60120  0.32443  1.0000
  C   C41       1.0  0.72707  0.65142  0.33904  1.0000
  C   C42       1.0  0.76649  0.58404  0.34506  1.0000
  N   N16       1.0  0.74283  0.56976  0.32881  1.0000
  O   O9        1.0  0.70072  0.58168  0.30583  1.0000
  C   C43       1.0  0.69610  0.57669  0.21095  1.0000
  H   H32       1.0  0.69662  0.61150  0.17663  1.0000
  H   H33       1.0  0.67760  0.56157  0.20235  1.0000
  H   H34       1.0  0.70941  0.55228  0.17955  1.0000
  C   C44       1.0  0.25123  0.84301  0.32964  1.0000
  N   N17       1.0  0.26966  0.87625  0.32745  1.0000
  H   H35       1.0  0.25592  0.80786  0.31900  1.0000
  C   C45       1.0  0.75705  0.16519  0.32950  1.0000
  N   N18       1.0  0.73860  0.13199  0.32716  1.0000
  H   H36       1.0  0.75241  0.20033  0.31849  1.0000
  C   C46       1.0  0.13495  0.47240  0.29943  1.0000
  C   C47       1.0  0.15460  0.44527  0.33743  1.0000
  C   C48       1.0  0.10558  0.41092  0.33501  1.0000
  N   N19       1.0  0.11163  0.45478  0.30138  1.0000
  O   O10       1.0  0.13778  0.51714  0.26235  1.0000
  C   C49       1.0  0.14224  0.51563  0.16700  1.0000
  H   H37       1.0  0.15926  0.49597  0.15118  1.0000
  H   H38       1.0  0.14439  0.55248  0.14318  1.0000
  H   H39       1.0  0.12666  0.49939  0.13109  1.0000
  C   C50       1.0  0.87580  0.53361  0.32007  1.0000
  C   C51       1.0  0.85528  0.56179  0.34842  1.0000
  C   C52       1.0  0.90423  0.59637  0.35743  1.0000
  N   N20       1.0  0.89904  0.55142  0.32724  1.0000
  O   O11       1.0  0.87389  0.48757  0.28811  1.0000
  C   C53       1.0  0.87192  0.48541  0.19171  1.0000
  H   H40       1.0  0.85543  0.50435  0.16760  1.0000
  H   H41       1.0  0.87029  0.44773  0.17226  1.0000
  H   H42       1.0  0.88840  0.50029  0.15919  1.0000
  C   C54       1.0  0.36074  0.89873  0.31534  1.0000
  N   N21       1.0  0.38475  0.88321  0.31618  1.0000
  H   H43       1.0  0.34761  0.87699  0.28698  1.0000
  C   C55       1.0  0.64807  0.10926  0.30784  1.0000
  N   N22       1.0  0.62414  0.12492  0.30316  1.0000
  H   H44       1.0  0.66179  0.13194  0.28658  1.0000
  C   C56       1.0  0.98145  0.49785  0.32764  1.0000
  N   N23       1.0  0.99824  0.46215  0.31681  1.0000
  H   H45       1.0  0.96348  0.49083  0.31013  1.0000
  C   C57       1.0  0.49486  0.04809  0.29879  1.0000
  C   C58       1.0  0.52032  0.04314  0.32196  1.0000
  C   C59       1.0  0.48638  0.96861  0.34836  1.0000
  N   N24       1.0  0.47894  0.01117  0.31353  1.0000
  O   O12       1.0  0.48511  0.08802  0.25811  1.0000
  C   C60       1.0  0.48060  0.08102  0.16344  1.0000
  H   H46       1.0  0.49797  0.07492  0.12711  1.0000
  H   H47       1.0  0.47197  0.11349  0.13686  1.0000
  H   H48       1.0  0.46793  0.05110  0.15085  1.0000
  C   C61       1.0  0.44761  0.35892  0.32625  1.0000
  N   N25       1.0  0.45742  0.40405  0.33697  1.0000
  C   C62       1.0  0.48258  0.41189  0.33731  1.0000
  N   N26       1.0  0.49746  0.37285  0.32872  1.0000
  C   C63       1.0  0.48863  0.32802  0.31707  1.0000
  N   N27       1.0  0.46374  0.32175  0.31490  1.0000
  C   C64       1.0  0.56207  0.64865  0.33630  1.0000
  N   N28       1.0  0.55257  0.60333  0.34554  1.0000
  C   C65       1.0  0.52751  0.59559  0.35026  1.0000
  N   N29       1.0  0.51197  0.63392  0.34501  1.0000
  C   C66       1.0  0.52074  0.67910  0.33439  1.0000
  N   N30       1.0  0.54566  0.68558  0.32993  1.0000
  C   C67       1.0  0.06139  0.85888  0.35834  1.0000
  N   N31       1.0  0.05157  0.90401  0.34765  1.0000
  C   C68       1.0  0.02641  0.91184  0.34737  1.0000
  N   N32       1.0  0.01153  0.87280  0.35597  1.0000
  C   C69       1.0  0.02037  0.82797  0.36761  1.0000
  N   N33       1.0  0.04526  0.82170  0.36973  1.0000
  C   C70       1.0  0.94692  0.14863  0.34826  1.0000
  N   N34       1.0  0.95642  0.10330  0.33906  1.0000
  C   C71       1.0  0.98149  0.09554  0.33432  1.0000
  N   N35       1.0  0.99702  0.13388  0.33955  1.0000
  C   C72       1.0  0.98826  0.17906  0.35013  1.0000
  N   N36       1.0  0.96334  0.18555  0.35461  1.0000
  C   C73       1.0  0.31627  0.23944  0.33201  1.0000
  N   N37       1.0  0.29774  0.27297  0.33520  1.0000
  C   C74       1.0  0.30219  0.32154  0.33738  1.0000
  N   N38       1.0  0.32639  0.33569  0.33724  1.0000
  C   C75       1.0  0.34583  0.30462  0.33486  1.0000
  N   N39       1.0  0.33986  0.25707  0.33217  1.0000
  C   C76       1.0  0.69326  0.76843  0.33234  1.0000
  N   N40       1.0  0.71186  0.73507  0.33511  1.0000
  C   C77       1.0  0.70747  0.68649  0.33766  1.0000
  N   N41       1.0  0.68329  0.67220  0.33845  1.0000
  C   C78       1.0  0.66380  0.70316  0.33657  1.0000
  N   N42       1.0  0.66969  0.75071  0.33346  1.0000
  C   C79       1.0  0.19273  0.73944  0.35257  1.0000
  N   N43       1.0  0.21126  0.77297  0.34931  1.0000
  C   C80       1.0  0.20680  0.82153  0.34712  1.0000
  N   N44       1.0  0.18260  0.83569  0.34730  1.0000
  C   C81       1.0  0.16317  0.80461  0.34974  1.0000
  N   N45       1.0  0.16914  0.75706  0.35246  1.0000
  C   C82       1.0  0.81574  0.26844  0.35228  1.0000
  N   N46       1.0  0.79713  0.23507  0.34950  1.0000
  C   C83       1.0  0.80152  0.18650  0.34693  1.0000
  N   N47       1.0  0.82570  0.17220  0.34615  1.0000
  C   C84       1.0  0.84519  0.20316  0.34804  1.0000
  N   N48       1.0  0.83930  0.25071  0.35116  1.0000
  C   C85       1.0  0.04558  0.34643  0.35406  1.0000
  N   N49       1.0  0.07069  0.35364  0.35030  1.0000
  C   C86       1.0  0.08014  0.39894  0.33863  1.0000
  N   N50       1.0  0.06402  0.43644  0.33240  1.0000
  C   C87       1.0  0.03922  0.43014  0.33346  1.0000
  N   N51       1.0  0.03059  0.38518  0.34421  1.0000
  C   C88       1.0  0.96235  0.66390  0.39458  1.0000
  N   N52       1.0  0.93763  0.65512  0.38283  1.0000
  C   C89       1.0  0.92938  0.60938  0.36755  1.0000
  N   N53       1.0  0.94643  0.57342  0.36236  1.0000
  C   C90       1.0  0.97110  0.58075  0.37249  1.0000
  N   N54       1.0  0.97838  0.62648  0.38755  1.0000
  C   C91       1.0  0.46342  0.84647  0.33049  1.0000
  N   N55       1.0  0.43831  0.85366  0.33419  1.0000
  C   C92       1.0  0.42885  0.89895  0.34582  1.0000
  N   N56       1.0  0.44496  0.93647  0.35213  1.0000
  C   C93       1.0  0.46976  0.93019  0.35111  1.0000
  N   N57       1.0  0.47840  0.88523  0.34038  1.0000
  C   C94       1.0  0.54664  0.16396  0.29055  1.0000
  N   N58       1.0  0.57137  0.15515  0.30198  1.0000
  C   C95       1.0  0.57961  0.10941  0.31716  1.0000
  N   N59       1.0  0.56255  0.07345  0.32237  1.0000
  C   C96       1.0  0.53788  0.08081  0.31233  1.0000
  N   N60       1.0  0.53061  0.12656  0.29742  1.0000
  C   C97       1.0  0.20462  0.53519  0.35027  1.0000
  N   N61       1.0  0.22513  0.50604  0.34818  1.0000
  C   C98       1.0  0.22293  0.45675  0.34636  1.0000
  N   N62       1.0  0.19973  0.43726  0.34438  1.0000
  C   C99       1.0  0.17895  0.46466  0.34399  1.0000
  N   N63       1.0  0.18223  0.51290  0.34789  1.0000
  C   C100      1.0  0.80470  0.47268  0.35185  1.0000
  N   N64       1.0  0.78434  0.50212  0.34813  1.0000
  C   C101      1.0  0.78675  0.55137  0.34732  1.0000
  N   N65       1.0  0.81005  0.57049  0.34837  1.0000
  C   C102      1.0  0.83074  0.54280  0.34978  1.0000
  N   N66       1.0  0.82718  0.49464  0.35250  1.0000
  C   C103      1.0  0.30439  0.03518  0.33437  1.0000
  N   N67       1.0  0.28387  0.00605  0.33637  1.0000
  C   C104      1.0  0.28606  0.95674  0.33813  1.0000
  N   N68       1.0  0.30926  0.93724  0.34013  1.0000
  C   C105      1.0  0.33004  0.96463  0.34062  1.0000
  N   N69       1.0  0.32677  0.01287  0.33678  1.0000
  C   C106      1.0  0.70430  0.97269  0.33274  1.0000
  N   N70       1.0  0.72466  0.00212  0.33646  1.0000
  C   C107      1.0  0.72224  0.05138  0.33725  1.0000
  N   N71       1.0  0.69895  0.07050  0.33618  1.0000
  C   C108      1.0  0.67826  0.04280  0.33476  1.0000
  N   N72       1.0  0.68182  0.99464  0.33206  1.0000
  C   C109      1.0  0.48072  0.49977  0.36577  1.0000
  N   N73       1.0  0.49204  0.54337  0.36937  1.0000
  H   H49       1.0  0.46219  0.49805  0.37982  1.0000
  C   C110      1.0  0.98910  0.96563  0.36199  1.0000
  C   C111      1.0  0.01473  0.95800  0.34218  1.0000
  C   C112      1.0  0.99231  0.04938  0.33191  1.0000
  N   N74       1.0  0.97894  0.01018  0.35553  1.0000
  O   O13       1.0  0.97321  0.93010  0.38933  1.0000
  C   C113      1.0  0.97093  0.92683  0.48562  1.0000
  H   H50       1.0  0.98880  0.91927  0.51749  1.0000
  H   H51       1.0  0.95838  0.89722  0.50111  1.0000
  H   H52       1.0  0.96312  0.95975  0.51405  1.0000
  C   C114      1.0  0.37922  0.36818  0.35196  1.0000
  C   C115      1.0  0.37121  0.32038  0.33323  1.0000
  C   C116      1.0  0.42185  0.34785  0.32724  1.0000
  N   N75       1.0  0.40379  0.38020  0.34791  1.0000
  O   O14       1.0  0.36296  0.40403  0.37409  1.0000
  C   C117      1.0  0.36002  0.41003  0.46961  1.0000
  H   H53       1.0  0.35292  0.37729  0.50130  1.0000
  H   H54       1.0  0.34661  0.43873  0.48097  1.0000
  H   H55       1.0  0.37748  0.42036  0.50155  1.0000
  C   C118      1.0  0.63056  0.63954  0.35528  1.0000
  C   C119      1.0  0.63842  0.68739  0.33633  1.0000
  C   C120      1.0  0.58779  0.65991  0.33439  1.0000
  N   N76       1.0  0.60598  0.62752  0.35320  1.0000
  O   O15       1.0  0.64695  0.60368  0.37607  1.0000
  C   C121      1.0  0.65035  0.59747  0.47136  1.0000
  H   H56       1.0  0.65757  0.63017  0.50287  1.0000
  H   H57       1.0  0.66385  0.56881  0.48163  1.0000
  H   H58       1.0  0.63307  0.58698  0.50430  1.0000
  C   C122      1.0  0.11853  0.78760  0.37229  1.0000
  N   N77       1.0  0.09452  0.80192  0.37436  1.0000
  H   H59       1.0  0.12215  0.75240  0.38670  1.0000
  C   C123      1.0  0.88998  0.22016  0.36730  1.0000
  N   N78       1.0  0.91400  0.20586  0.36734  1.0000
  H   H60       1.0  0.88646  0.25543  0.38151  1.0000
  C   C124      1.0  0.54227  0.24817  0.33967  1.0000
  N   N79       1.0  0.52689  0.28658  0.34923  1.0000
  H   H61       1.0  0.55739  0.24567  0.38090  1.0000
  C   C125      1.0  0.46645  0.75841  0.35500  1.0000
  N   N80       1.0  0.48108  0.71855  0.35860  1.0000
  H   H62       1.0  0.44941  0.75726  0.38506  1.0000
  C   C126      1.0  0.99532  0.71615  0.45432  1.0000
  C   C127      1.0  0.97342  0.70980  0.40270  1.0000
  C   C128      1.0  0.00391  0.78982  0.38112  1.0000
  N   N81       1.0  0.01005  0.75481  0.44024  1.0000
  O   O16       1.0  0.00343  0.68295  0.51531  1.0000
  C   C129      1.0  0.99427  0.69191  0.60458  1.0000
  H   H63       1.0  0.00050  0.72682  0.62986  1.0000
  H   H64       1.0  0.00157  0.66410  0.64899  1.0000
  H   H65       1.0  0.97403  0.69018  0.60696  1.0000
  C   C130      1.0  0.00918  0.29945  0.40498  1.0000
  C   C131      1.0  0.03326  0.30175  0.36597  1.0000
  C   C132      1.0  0.00432  0.21846  0.35843  1.0000
  N   N82       1.0  0.99557  0.25889  0.39777  1.0000
  O   O17       1.0  0.99748  0.33760  0.44493  1.0000
  C   C133      1.0  0.00222  0.34073  0.53988  1.0000
  H   H66       1.0  0.99551  0.30879  0.57526  1.0000
  H   H67       1.0  0.99228  0.37190  0.56598  1.0000
  H   H68       1.0  0.02197  0.34572  0.55372  1.0000
  C   C134      1.0  0.28901  0.16618  0.34964  1.0000
  N   N83       1.0  0.28621  0.11717  0.35059  1.0000
  H   H69       1.0  0.27413  0.18681  0.36756  1.0000
  C   C135      1.0  0.72020  0.84206  0.35023  1.0000
  N   N84       1.0  0.72279  0.89111  0.35081  1.0000
  H   H70       1.0  0.73509  0.82169  0.36902  1.0000
  C   C136      1.0  0.17787  0.65545  0.38088  1.0000
  C   C137      1.0  0.19693  0.68820  0.35618  1.0000
  C   C138      1.0  0.20386  0.58657  0.35434  1.0000
  N   N85       1.0  0.18195  0.60738  0.37739  1.0000
  O   O18       1.0  0.15456  0.66909  0.40680  1.0000
  C   C139      1.0  0.15187  0.67241  0.50290  1.0000
  H   H71       1.0  0.15504  0.63768  0.53535  1.0000
  H   H72       1.0  0.13292  0.68362  0.51756  1.0000
  H   H73       1.0  0.16448  0.69921  0.53138  1.0000
  C   C140      1.0  0.83084  0.35201  0.38215  1.0000
  C   C141      1.0  0.81171  0.31966  0.35640  1.0000
  C   C142      1.0  0.80522  0.42131  0.35524  1.0000
  N   N86       1.0  0.82697  0.40011  0.37901  1.0000
  O   O19       1.0  0.85402  0.33793  0.40879  1.0000
  C   C143      1.0  0.85640  0.33403  0.50490  1.0000
  H   H74       1.0  0.85328  0.36864  0.53790  1.0000
  H   H75       1.0  0.87526  0.32243  0.52008  1.0000
  H   H76       1.0  0.84360  0.30728  0.53237  1.0000
  C   C144      1.0  0.25775  0.34299  0.35462  1.0000
  N   N87       1.0  0.23932  0.37623  0.35682  1.0000
  H   H77       1.0  0.25306  0.30783  0.36512  1.0000
  C   C145      1.0  0.75195  0.66519  0.35498  1.0000
  N   N88       1.0  0.77040  0.63199  0.35731  1.0000
  H   H78       1.0  0.75660  0.70034  0.36592  1.0000
  C   C146      1.0  0.22266  0.90698  0.35965  1.0000
  C   C147      1.0  0.22634  0.85674  0.34539  1.0000
  C   C148      1.0  0.26573  0.92421  0.33943  1.0000
  N   N89       1.0  0.24205  0.93847  0.35536  1.0000
  O   O20       1.0  0.19993  0.92647  0.37802  1.0000
  C   C149      1.0  0.19531  0.93181  0.47284  1.0000
  H   H79       1.0  0.19590  0.89715  0.50766  1.0000
  H   H80       1.0  0.17679  0.94685  0.48127  1.0000
  H   H81       1.0  0.20859  0.95644  0.50387  1.0000
  C   C150      1.0  0.78556  0.10122  0.36026  1.0000
  C   C151      1.0  0.78193  0.15143  0.34556  1.0000
  C   C152      1.0  0.74251  0.08405  0.33951  1.0000
  N   N90       1.0  0.76616  0.06978  0.35587  1.0000
  O   O21       1.0  0.80827  0.08170  0.37901  1.0000
  C   C153      1.0  0.81286  0.07680  0.47391  1.0000
  H   H82       1.0  0.81233  0.11163  0.50813  1.0000
  H   H83       1.0  0.83136  0.06168  0.48263  1.0000
  H   H84       1.0  0.79954  0.05242  0.50534  1.0000
  C   C154      1.0  0.14826  0.39870  0.36887  1.0000
  N   N91       1.0  0.12426  0.38316  0.36799  1.0000
  H   H85       1.0  0.16140  0.37689  0.39697  1.0000
  C   C155      1.0  0.86092  0.60925  0.37678  1.0000
  N   N92       1.0  0.88485  0.62490  0.38149  1.0000
  H   H86       1.0  0.84721  0.63191  0.39812  1.0000
  C   C156      1.0  0.37401  0.97226  0.38554  1.0000
  C   C157      1.0  0.35438  0.94522  0.34719  1.0000
  C   C158      1.0  0.40340  0.91091  0.34948  1.0000
  N   N93       1.0  0.39734  0.95467  0.38352  1.0000
  O   O22       1.0  0.37114  0.01688  0.42306  1.0000
  C   C159      1.0  0.36663  0.01507  0.51837  1.0000
  H   H87       1.0  0.34959  0.99536  0.53382  1.0000
  H   H88       1.0  0.36445  0.05185  0.54257  1.0000
  H   H89       1.0  0.38218  0.99872  0.55423  1.0000
  C   C160      1.0  0.63320  0.03359  0.36439  1.0000
  C   C161      1.0  0.65371  0.06178  0.33610  1.0000
  C   C162      1.0  0.60477  0.09637  0.32713  1.0000
  N   N94       1.0  0.60996  0.05140  0.35725  1.0000
  O   O23       1.0  0.63510  0.98754  0.39629  1.0000
  C   C163      1.0  0.63706  0.98534  0.49269  1.0000
  H   H90       1.0  0.65355  0.00428  0.51685  1.0000
  H   H91       1.0  0.63869  0.94765  0.51209  1.0000
  H   H92       1.0  0.62058  0.00020  0.52520  1.0000
  C   C164      1.0  0.01412  0.54803  0.38593  1.0000
  C   C165      1.0  0.98866  0.54308  0.36279  1.0000
  C   C166      1.0  0.02259  0.46855  0.33626  1.0000
  N   N95       1.0  0.03004  0.51110  0.37115  1.0000
  O   O24       1.0  0.02388  0.58792  0.42674  1.0000
  C   C167      1.0  0.02835  0.58085  0.52142  1.0000
  H   H93       1.0  0.01096  0.57477  0.55766  1.0000
  H   H94       1.0  0.03699  0.61328  0.54811  1.0000
  H   H95       1.0  0.04099  0.55088  0.53401  1.0000
  C   C168      1.0  0.52753  0.99789  0.35704  1.0000
  N   N96       1.0  0.51074  0.96219  0.36781  1.0000
  H   H96       1.0  0.54549  0.99086  0.37457  1.0000
