data_image0
_chemical_formula_structural       C2NOCHC2NOCHC2NOCHC2NOCHC2NOCHC2NOCHC4H2C4H2C4H2C4H2C4H2C4H2C2NOCHC2NOCHC2NOCHC2NOCHC2NOCHC2NOCHCNCNCNCNCNCNCNCNCNCNCNCNCNCNCNCNCNCNCNCNCNCNCNCNCNCNCNCNCNCNCNCNCNCNCNCNC4H2C4H2C4H2C4H2C4H2C4H2C2NOCHC2NOCHC2NOCHC2NOCHC2NOCHC2NOCHC4H2C4H2C4H2C4H2C4H2C4H2
_chemical_formula_sum              "C162 N54 O18 H54"
_cell_length_a       39.2947
_cell_length_b       39.2948
_cell_length_c       14.7853
_cell_angle_alpha    90
_cell_angle_beta     90
_cell_angle_gamma    120

_space_group_name_H-M_alt    "P 1"
_space_group_IT_number       1

loop_
  _space_group_symop_operation_xyz
  'x, y, z'

loop_
  _atom_site_type_symbol
  _atom_site_label
  _atom_site_symmetry_multiplicity
  _atom_site_fract_x
  _atom_site_fract_y
  _atom_site_fract_z
  _atom_site_occupancy
  C   C1        1.0  0.25551  0.46053  0.26834  1.0000
  C   C2        1.0  0.22006  0.46077  0.26897  1.0000
  N   N1        1.0  0.21088  0.46272  0.18320  1.0000
  O   O1        1.0  0.26909  0.46256  0.18266  1.0000
  C   C3        1.0  0.23986  0.46330  0.13385  1.0000
  H   H1        1.0  0.24051  0.46512  0.06491  1.0000
  C   C4        1.0  0.57604  0.81695  0.26836  1.0000
  C   C5        1.0  0.57586  0.78129  0.26902  1.0000
  N   N2        1.0  0.57382  0.77011  0.18327  1.0000
  O   O2        1.0  0.57393  0.82844  0.18267  1.0000
  C   C6        1.0  0.57336  0.79855  0.13387  1.0000
  H   H2        1.0  0.57104  0.79713  0.06500  1.0000
  C   C7        1.0  0.21956  0.78095  0.26825  1.0000
  C   C8        1.0  0.25525  0.81639  0.26893  1.0000
  N   N3        1.0  0.26639  0.82559  0.18317  1.0000
  O   O3        1.0  0.20802  0.76739  0.18255  1.0000
  C   C9        1.0  0.23801  0.79663  0.13379  1.0000
  H   H3        1.0  0.23918  0.79598  0.06484  1.0000
  C   C10       1.0  0.77851  0.57844  0.26834  1.0000
  C   C11       1.0  0.81399  0.57826  0.26899  1.0000
  N   N4        1.0  0.82313  0.57624  0.18324  1.0000
  O   O4        1.0  0.76492  0.57635  0.18265  1.0000
  C   C12       1.0  0.79424  0.57580  0.13385  1.0000
  H   H4        1.0  0.79335  0.57349  0.06497  1.0000
  C   C13       1.0  0.45805  0.22200  0.26835  1.0000
  C   C14       1.0  0.45829  0.25769  0.26897  1.0000
  N   N5        1.0  0.46024  0.26882  0.18321  1.0000
  O   O5        1.0  0.46008  0.21045  0.18267  1.0000
  C   C15       1.0  0.46083  0.24043  0.13386  1.0000
  H   H5        1.0  0.46265  0.24159  0.06491  1.0000
  C   C16       1.0  0.81445  0.25791  0.26845  1.0000
  C   C17       1.0  0.77880  0.22243  0.26908  1.0000
  N   N6        1.0  0.76763  0.21329  0.18332  1.0000
  O   O6        1.0  0.82595  0.27152  0.18276  1.0000
  C   C18       1.0  0.79608  0.24219  0.13394  1.0000
  H   H6        1.0  0.79466  0.24309  0.06507  1.0000
  C   C19       1.0  0.15073  0.62268  0.34539  1.0000
  C   C20       1.0  0.15091  0.54996  0.34535  1.0000
  C   C21       1.0  0.15054  0.56819  0.26312  1.0000
  C   C22       1.0  0.15037  0.60409  0.26311  1.0000
  H   H7        1.0  0.14842  0.61571  0.20263  1.0000
  H   H8        1.0  0.14862  0.55463  0.20265  1.0000
  C   C23       1.0  0.41373  0.55006  0.34540  1.0000
  C   C24       1.0  0.48649  0.62293  0.34521  1.0000
  C   C25       1.0  0.46829  0.60425  0.26303  1.0000
  C   C26       1.0  0.43235  0.56823  0.26309  1.0000
  H   H9        1.0  0.42075  0.55459  0.20266  1.0000
  H   H10       1.0  0.48185  0.61586  0.20254  1.0000
  C   C27       1.0  0.48645  0.88565  0.34544  1.0000
  C   C28       1.0  0.41355  0.88548  0.34537  1.0000
  C   C29       1.0  0.43217  0.88588  0.26316  1.0000
  C   C30       1.0  0.46824  0.88605  0.26316  1.0000
  H   H11       1.0  0.48182  0.88801  0.20269  1.0000
  H   H12       1.0  0.42055  0.88782  0.20268  1.0000
  C   C31       1.0  0.88314  0.41619  0.34532  1.0000
  C   C32       1.0  0.88308  0.48896  0.34519  1.0000
  C   C33       1.0  0.88351  0.47075  0.26298  1.0000
  C   C34       1.0  0.88358  0.43480  0.26302  1.0000
  H   H13       1.0  0.88559  0.42319  0.20258  1.0000
  H   H14       1.0  0.88544  0.48431  0.20249  1.0000
  C   C35       1.0  0.62021  0.48892  0.34539  1.0000
  C   C36       1.0  0.54748  0.41603  0.34536  1.0000
  C   C37       1.0  0.56572  0.43462  0.26312  1.0000
  C   C38       1.0  0.60162  0.47069  0.26310  1.0000
  H   H15       1.0  0.61324  0.48427  0.20263  1.0000
  H   H16       1.0  0.55215  0.42298  0.20265  1.0000
  C   C39       1.0  0.54756  0.15329  0.34541  1.0000
  C   C40       1.0  0.62043  0.15340  0.34520  1.0000
  C   C41       1.0  0.60174  0.15291  0.26303  1.0000
  C   C42       1.0  0.56572  0.15283  0.26310  1.0000
  H   H17       1.0  0.55208  0.15080  0.20267  1.0000
  H   H18       1.0  0.61335  0.15096  0.20253  1.0000
  C   C43       1.0  0.99628  0.38141  0.26861  1.0000
  C   C44       1.0  0.03735  0.40237  0.26927  1.0000
  N   N7        1.0  0.04905  0.41133  0.18374  1.0000
  O   O7        1.0  0.98181  0.37740  0.18315  1.0000
  C   C45       1.0  0.01596  0.39565  0.13437  1.0000
  H   H19       1.0  0.01625  0.39872  0.06573  1.0000
  C   C46       1.0  0.65513  0.63689  0.26876  1.0000
  C   C47       1.0  0.63423  0.65707  0.26939  1.0000
  N   N8        1.0  0.62513  0.65964  0.18388  1.0000
  O   O8        1.0  0.65899  0.62630  0.18334  1.0000
  C   C48       1.0  0.64105  0.64248  0.13444  1.0000
  H   H20       1.0  0.63714  0.63886  0.06609  1.0000
  C   C49       1.0  0.39961  0.04014  0.26854  1.0000
  C   C50       1.0  0.37953  0.99908  0.26918  1.0000
  N   N9        1.0  0.37676  0.98738  0.18365  1.0000
  O   O9        1.0  0.41005  0.05462  0.18309  1.0000
  C   C51       1.0  0.39414  0.02047  0.13429  1.0000
  H   H21       1.0  0.39692  0.02019  0.06565  1.0000
  C   C52       1.0  0.03767  0.65758  0.26884  1.0000
  C   C53       1.0  0.99660  0.63669  0.26950  1.0000
  N   N10       1.0  0.98492  0.62757  0.18400  1.0000
  O   O10       1.0  0.05212  0.66142  0.18342  1.0000
  C   C54       1.0  0.01799  0.64346  0.13454  1.0000
  H   H22       1.0  0.01770  0.63954  0.06620  1.0000
  C   C55       1.0  0.37893  0.40210  0.26857  1.0000
  C   C56       1.0  0.39989  0.38200  0.26926  1.0000
  N   N11       1.0  0.40884  0.37924  0.18373  1.0000
  O   O11       1.0  0.37492  0.41256  0.18311  1.0000
  C   C57       1.0  0.39316  0.39664  0.13435  1.0000
  H   H23       1.0  0.39623  0.39942  0.06571  1.0000
  C   C58       1.0  0.63444  0.99877  0.26868  1.0000
  C   C59       1.0  0.65462  0.03983  0.26935  1.0000
  N   N12       1.0  0.65721  0.05152  0.18384  1.0000
  O   O12       1.0  0.62385  0.98431  0.18325  1.0000
  C   C60       1.0  0.64006  0.01845  0.13438  1.0000
  H   H24       1.0  0.63645  0.01874  0.06603  1.0000
  C   C61       1.0  0.09952  0.44321  0.34894  1.0000
  N   N13       1.0  0.13025  0.43619  0.34968  1.0000
  C   C62       1.0  0.16820  0.46661  0.34886  1.0000
  N   N14       1.0  0.17500  0.50415  0.34727  1.0000
  C   C63       1.0  0.14474  0.51154  0.34632  1.0000
  N   N15       1.0  0.10736  0.48099  0.34733  1.0000
  C   C64       1.0  0.59324  0.67821  0.34890  1.0000
  N   N16       1.0  0.60030  0.71597  0.34969  1.0000
  C   C65       1.0  0.56990  0.72354  0.34884  1.0000
  N   N17       1.0  0.53235  0.69282  0.34723  1.0000
  C   C66       1.0  0.52492  0.65515  0.34627  1.0000
  N   N18       1.0  0.55546  0.64830  0.34728  1.0000
  C   C67       1.0  0.35822  0.93691  0.34895  1.0000
  N   N19       1.0  0.32047  0.90619  0.34968  1.0000
  C   C68       1.0  0.31292  0.86823  0.34888  1.0000
  N   N20       1.0  0.34366  0.86143  0.34730  1.0000
  C   C69       1.0  0.38132  0.89168  0.34636  1.0000
  N   N21       1.0  0.38815  0.92906  0.34734  1.0000
  C   C70       1.0  0.93446  0.59570  0.34893  1.0000
  N   N22       1.0  0.90373  0.60272  0.34971  1.0000
  C   C71       1.0  0.86577  0.57230  0.34880  1.0000
  N   N23       1.0  0.85899  0.53477  0.34717  1.0000
  C   C72       1.0  0.88925  0.52738  0.34623  1.0000
  N   N24       1.0  0.92663  0.55793  0.34728  1.0000
  C   C73       1.0  0.44073  0.36067  0.34895  1.0000
  N   N25       1.0  0.43371  0.32292  0.34969  1.0000
  C   C74       1.0  0.46413  0.31538  0.34887  1.0000
  N   N26       1.0  0.50167  0.34613  0.34728  1.0000
  C   C75       1.0  0.50907  0.38378  0.34634  1.0000
  N   N27       1.0  0.47851  0.39061  0.34734  1.0000
  C   C76       1.0  0.67574  0.10196  0.34889  1.0000
  N   N28       1.0  0.71349  0.13267  0.34970  1.0000
  C   C77       1.0  0.72105  0.17064  0.34886  1.0000
  N   N29       1.0  0.69031  0.17745  0.34724  1.0000
  C   C78       1.0  0.65265  0.14720  0.34625  1.0000
  N   N30       1.0  0.64581  0.10981  0.34725  1.0000
  C   C79       1.0  0.44083  0.10192  0.34894  1.0000
  N   N31       1.0  0.43380  0.13263  0.34959  1.0000
  C   C80       1.0  0.46422  0.17060  0.34888  1.0000
  N   N32       1.0  0.50176  0.17739  0.34738  1.0000
  C   C81       1.0  0.50916  0.14713  0.34642  1.0000
  N   N33       1.0  0.47860  0.10975  0.34738  1.0000
  C   C82       1.0  0.67563  0.59564  0.34886  1.0000
  N   N34       1.0  0.71337  0.60265  0.34953  1.0000
  C   C83       1.0  0.72089  0.57221  0.34871  1.0000
  N   N35       1.0  0.69013  0.53468  0.34719  1.0000
  C   C84       1.0  0.65248  0.52730  0.34625  1.0000
  N   N36       1.0  0.64568  0.55787  0.34731  1.0000
  C   C85       1.0  0.93450  0.36082  0.34889  1.0000
  N   N37       1.0  0.90378  0.32307  0.34959  1.0000
  C   C86       1.0  0.86582  0.31553  0.34885  1.0000
  N   N38       1.0  0.85902  0.34628  0.34732  1.0000
  C   C87       1.0  0.88928  0.38394  0.34634  1.0000
  N   N39       1.0  0.92666  0.39076  0.34730  1.0000
  C   C88       1.0  0.59317  0.93701  0.34884  1.0000
  N   N40       1.0  0.60021  0.90630  0.34951  1.0000
  C   C89       1.0  0.56979  0.86833  0.34874  1.0000
  N   N41       1.0  0.53225  0.86153  0.34725  1.0000
  C   C90       1.0  0.52484  0.89179  0.34629  1.0000
  N   N42       1.0  0.55540  0.92917  0.34732  1.0000
  C   C91       1.0  0.35838  0.44333  0.34893  1.0000
  N   N43       1.0  0.32063  0.43630  0.34958  1.0000
  C   C92       1.0  0.31309  0.46672  0.34886  1.0000
  N   N44       1.0  0.34384  0.50426  0.34736  1.0000
  C   C93       1.0  0.38149  0.51166  0.34641  1.0000
  N   N45       1.0  0.38832  0.48111  0.34737  1.0000
  C   C94       1.0  0.09943  0.67810  0.34891  1.0000
  N   N46       1.0  0.13017  0.71584  0.34955  1.0000
  C   C95       1.0  0.16812  0.72337  0.34872  1.0000
  N   N47       1.0  0.17489  0.69260  0.34717  1.0000
  C   C96       1.0  0.14462  0.65495  0.34627  1.0000
  N   N48       1.0  0.10725  0.64815  0.34736  1.0000
  C   C97       1.0  0.27450  0.46091  0.34971  1.0000
  C   C98       1.0  0.20095  0.46075  0.34979  1.0000
  C   C99       1.0  0.22003  0.46149  0.43170  1.0000
  C   C100      1.0  0.25618  0.46163  0.43169  1.0000
  H   H25       1.0  0.26975  0.46369  0.49222  1.0000
  H   H26       1.0  0.20851  0.46351  0.49224  1.0000
  C   C101      1.0  0.57565  0.83559  0.34970  1.0000
  C   C102      1.0  0.57580  0.76217  0.34986  1.0000
  C   C103      1.0  0.57491  0.78045  0.43171  1.0000
  C   C104      1.0  0.57482  0.81649  0.43167  1.0000
  H   H27       1.0  0.57268  0.82797  0.49218  1.0000
  H   H28       1.0  0.57285  0.76690  0.49226  1.0000
  C   C105      1.0  0.20089  0.76195  0.34959  1.0000
  C   C106      1.0  0.27431  0.83547  0.34978  1.0000
  C   C107      1.0  0.25594  0.81641  0.43167  1.0000
  C   C108      1.0  0.21993  0.78026  0.43160  1.0000
  H   H29       1.0  0.20839  0.76668  0.49211  1.0000
  H   H30       1.0  0.26948  0.82791  0.49223  1.0000
  C   C109      1.0  0.75948  0.57803  0.34969  1.0000
  C   C110      1.0  0.83302  0.57817  0.34985  1.0000
  C   C111      1.0  0.81389  0.57734  0.43172  1.0000
  C   C112      1.0  0.77777  0.57725  0.43168  1.0000
  H   H31       1.0  0.76416  0.57514  0.49218  1.0000
  H   H32       1.0  0.82540  0.57530  0.49227  1.0000
  C   C113      1.0  0.45841  0.20337  0.34972  1.0000
  C   C114      1.0  0.45826  0.27677  0.34979  1.0000
  C   C115      1.0  0.45899  0.25843  0.43170  1.0000
  C   C116      1.0  0.45913  0.22242  0.43170  1.0000
  H   H33       1.0  0.46118  0.21090  0.49223  1.0000
  H   H34       1.0  0.46102  0.27198  0.49224  1.0000
  C   C117      1.0  0.83306  0.27694  0.34981  1.0000
  C   C118      1.0  0.75966  0.20338  0.34992  1.0000
  C   C119      1.0  0.77796  0.22251  0.43180  1.0000
  C   C120      1.0  0.81399  0.25864  0.43178  1.0000
  H   H35       1.0  0.82547  0.27225  0.49229  1.0000
  H   H36       1.0  0.76441  0.21100  0.49234  1.0000
  C   C121      1.0  0.15109  0.60434  0.42709  1.0000
  C   C122      1.0  0.15081  0.56873  0.42648  1.0000
  N   N49       1.0  0.14857  0.55743  0.51220  1.0000
  O   O13       1.0  0.14876  0.61579  0.51270  1.0000
  C   C123      1.0  0.14788  0.58577  0.56155  1.0000
  H   H37       1.0  0.14577  0.58447  0.63045  1.0000
  C   C124      1.0  0.43208  0.56881  0.42705  1.0000
  C   C125      1.0  0.46767  0.60416  0.42639  1.0000
  N   N50       1.0  0.47904  0.61318  0.51208  1.0000
  O   O14       1.0  0.42070  0.55500  0.51267  1.0000
  C   C126      1.0  0.45063  0.58426  0.56151  1.0000
  H   H38       1.0  0.45223  0.58317  0.63031  1.0000
  C   C127      1.0  0.46776  0.88531  0.42712  1.0000
  C   C128      1.0  0.43243  0.88560  0.42650  1.0000
  N   N51       1.0  0.42338  0.88786  0.51222  1.0000
  O   O15       1.0  0.48154  0.88766  0.51273  1.0000
  C   C129      1.0  0.45240  0.88855  0.56157  1.0000
  H   H39       1.0  0.45321  0.89067  0.63047  1.0000
  C   C130      1.0  0.88274  0.43452  0.42700  1.0000
  C   C131      1.0  0.88300  0.47012  0.42635  1.0000
  N   N52       1.0  0.88534  0.48148  0.51205  1.0000
  O   O16       1.0  0.88516  0.42313  0.51261  1.0000
  C   C132      1.0  0.88583  0.45306  0.56147  1.0000
  H   H40       1.0  0.88851  0.45465  0.63027  1.0000
  C   C133      1.0  0.60187  0.47023  0.42708  1.0000
  C   C134      1.0  0.56626  0.43490  0.42648  1.0000
  N   N53       1.0  0.55496  0.42585  0.51221  1.0000
  O   O17       1.0  0.61332  0.48402  0.51269  1.0000
  C   C135      1.0  0.58330  0.45487  0.56155  1.0000
  H   H41       1.0  0.58200  0.45569  0.63045  1.0000
  C   C136      1.0  0.56631  0.15369  0.42705  1.0000
  C   C137      1.0  0.60166  0.15346  0.42638  1.0000
  N   N54       1.0  0.61069  0.15111  0.51208  1.0000
  O   O18       1.0  0.55251  0.15128  0.51268  1.0000
  C   C138      1.0  0.58177  0.15061  0.56151  1.0000
  H   H42       1.0  0.58069  0.14793  0.63031  1.0000
  C   C139      1.0  0.97455  0.37128  0.34995  1.0000
  C   C140      1.0  0.05948  0.41357  0.35000  1.0000
  C   C141      1.0  0.03783  0.40353  0.43185  1.0000
  C   C142      1.0  0.99619  0.38293  0.43185  1.0000
  H   H43       1.0  0.98183  0.37889  0.49216  1.0000
  H   H44       1.0  0.05220  0.41382  0.49216  1.0000
  C   C143      1.0  0.66518  0.62524  0.35018  1.0000
  C   C144      1.0  0.62285  0.66775  0.35020  1.0000
  C   C145      1.0  0.63289  0.65619  0.43208  1.0000
  C   C146      1.0  0.65360  0.63527  0.43210  1.0000
  H   H45       1.0  0.65763  0.62492  0.49237  1.0000
  H   H46       1.0  0.62264  0.66034  0.49239  1.0000
  C   C147      1.0  0.41125  0.06185  0.34991  1.0000
  C   C148      1.0  0.36865  0.97697  0.34993  1.0000
  C   C149      1.0  0.38023  0.99859  0.43183  1.0000
  C   C150      1.0  0.40126  0.04023  0.43183  1.0000
  H   H47       1.0  0.41158  0.05459  0.49214  1.0000
  H   H48       1.0  0.37614  0.98421  0.49213  1.0000
  C   C151      1.0  0.05938  0.66765  0.35024  1.0000
  C   C152      1.0  0.97451  0.62535  0.35031  1.0000
  C   C153      1.0  0.99614  0.63538  0.43214  1.0000
  C   C154      1.0  0.03777  0.65608  0.43216  1.0000
  H   H49       1.0  0.05216  0.66011  0.49243  1.0000
  H   H50       1.0  0.98176  0.62513  0.49246  1.0000
  C   C155      1.0  0.36886  0.41375  0.34992  1.0000
  C   C156      1.0  0.41109  0.37108  0.35001  1.0000
  C   C157      1.0  0.40107  0.38271  0.43186  1.0000
  C   C158      1.0  0.38048  0.40376  0.43185  1.0000
  H   H51       1.0  0.37645  0.41409  0.49215  1.0000
  H   H52       1.0  0.41136  0.37863  0.49217  1.0000
  C   C159      1.0  0.62275  0.97708  0.35010  1.0000
  C   C160      1.0  0.66529  0.06189  0.35018  1.0000
  C   C161      1.0  0.65371  0.04029  0.43206  1.0000
  C   C162      1.0  0.63279  0.99866  0.43206  1.0000
  H   H53       1.0  0.62242  0.98426  0.49232  1.0000
  H   H54       1.0  0.65786  0.05468  0.49237  1.0000
