data_image0
_chemical_formula_structural       CNC3H2CHCNC3H2CHC3OH3CNC3OH3CNC4H2OHC4H2OHC2NC2OH3C2NC2OH3NCHNCHNCHC3HCHC6H3C6H3NCHNCHC2NC2H2C2NC2OH3C2NC2OH3C2NC2OH3C2NC2OH3NCHNCHNCHC3HCHC6H3C6H3NCHNCHC2NC2H2C2NC2OH3C2NC2OH3C2NC2OH3C2NC2OH3C2NC2OH3NCHNCHNCHC6H3C6H3C6H3C6H3NCHNCHNCHC2NC2OH3C2NC2OH3C2NC2OH3C2NC2OH3C2NC2OH3C2NC2OH3NCHNCHNCHC6H3C6H3C6H3C6H3NCHNCHNCHC2NC2OH3C2NC2OH3C2NC2OH3
_chemical_formula_sum              "C216 N48 H144 O24"
_cell_length_a       45.2482
_cell_length_b       45.2692
_cell_length_c       14.8409
_cell_angle_alpha    90
_cell_angle_beta     90
_cell_angle_gamma    119.989

_space_group_name_H-M_alt    "P 1"
_space_group_IT_number       1

loop_
  _space_group_symop_operation_xyz
  'x, y, z'

loop_
  _atom_site_type_symbol
  _atom_site_label
  _atom_site_symmetry_multiplicity
  _atom_site_fract_x
  _atom_site_fract_y
  _atom_site_fract_z
  _atom_site_occupancy
  C   C1        1.0  0.07838  0.04048  0.33891  1.0000
  N   N1        1.0  0.09546  0.03033  0.28311  1.0000
  C   C2        1.0  0.04188  0.02233  0.34001  1.0000
  C   C3        1.0  0.02307  0.03967  0.33970  1.0000
  C   C4        1.0  0.02342  0.48618  0.33975  1.0000
  H   H1        1.0  0.03663  0.47326  0.33897  1.0000
  H   H2        1.0  0.03600  0.06579  0.33891  1.0000
  C   C5        1.0  0.09879  0.06946  0.39238  1.0000
  H   H3        1.0  0.08818  0.07883  0.43653  1.0000
  C   C6        1.0  0.07838  0.54048  0.33891  1.0000
  N   N2        1.0  0.09546  0.53033  0.28311  1.0000
  C   C7        1.0  0.04188  0.52233  0.34001  1.0000
  C   C8        1.0  0.02307  0.53967  0.33970  1.0000
  C   C9        1.0  0.02342  0.98618  0.33975  1.0000
  H   H4        1.0  0.03663  0.97326  0.33897  1.0000
  H   H5        1.0  0.03600  0.56579  0.33891  1.0000
  C   C10       1.0  0.09879  0.56946  0.39238  1.0000
  H   H6        1.0  0.08818  0.57883  0.43653  1.0000
  C   C11       1.0  0.15047  0.07382  0.33311  1.0000
  C   C12       1.0  0.13008  0.04532  0.27644  1.0000
  C   C13       1.0  0.14338  0.03204  0.20501  1.0000
  O   O1        1.0  0.16681  0.05831  0.14571  1.0000
  H   H7        1.0  0.12251  0.01236  0.16489  1.0000
  H   H8        1.0  0.15638  0.01987  0.23599  1.0000
  H   H9        1.0  0.15425  0.06735  0.11221  1.0000
  C   C14       1.0  0.18707  0.09262  0.33589  1.0000
  N   N3        1.0  0.13332  0.08441  0.38770  1.0000
  C   C15       1.0  0.15047  0.57382  0.33311  1.0000
  C   C16       1.0  0.13008  0.54532  0.27644  1.0000
  C   C17       1.0  0.14338  0.53204  0.20501  1.0000
  O   O2        1.0  0.16681  0.55831  0.14571  1.0000
  H   H10       1.0  0.12251  0.51236  0.16489  1.0000
  H   H11       1.0  0.15638  0.51987  0.23599  1.0000
  H   H12       1.0  0.15425  0.56736  0.11221  1.0000
  C   C18       1.0  0.18707  0.59262  0.33589  1.0000
  N   N4        1.0  0.13332  0.58441  0.38770  1.0000
  C   C19       1.0  0.24249  0.09434  0.34553  1.0000
  C   C20       1.0  0.24102  0.14795  0.33998  1.0000
  C   C21       1.0  0.20498  0.12892  0.33615  1.0000
  C   C22       1.0  0.20646  0.07584  0.34244  1.0000
  H   H13       1.0  0.19174  0.14177  0.33262  1.0000
  H   H14       1.0  0.19441  0.04990  0.34832  1.0000
  O   O3        1.0  0.23790  0.07850  0.53791  1.0000
  H   H15       1.0  0.24069  0.10129  0.52893  1.0000
  C   C23       1.0  0.24249  0.59434  0.34553  1.0000
  C   C24       1.0  0.24102  0.64795  0.33998  1.0000
  C   C25       1.0  0.20498  0.62892  0.33615  1.0000
  C   C26       1.0  0.20646  0.57584  0.34244  1.0000
  H   H16       1.0  0.19174  0.64177  0.33262  1.0000
  H   H17       1.0  0.19441  0.54990  0.34832  1.0000
  O   O4        1.0  0.23790  0.57850  0.53791  1.0000
  H   H18       1.0  0.24069  0.60129  0.52893  1.0000
  C   C27       1.0  0.43561  0.07927  0.33311  1.0000
  C   C28       1.0  0.46877  0.04035  0.33876  1.0000
  N   N5        1.0  0.47904  0.06765  0.28316  1.0000
  C   C29       1.0  0.46415  0.08736  0.27659  1.0000
  C   C30       1.0  0.47752  0.11396  0.20524  1.0000
  O   O5        1.0  0.45130  0.11121  0.14587  1.0000
  H   H19       1.0  0.49720  0.11273  0.16515  1.0000
  H   H20       1.0  0.48974  0.13911  0.23627  1.0000
  H   H21       1.0  0.44221  0.08963  0.11231  1.0000
  C   C31       1.0  0.43009  0.35883  0.33313  1.0000
  C   C32       1.0  0.46892  0.43089  0.33884  1.0000
  N   N6        1.0  0.44168  0.41384  0.28303  1.0000
  C   C33       1.0  0.42203  0.37924  0.27638  1.0000
  C   C34       1.0  0.39546  0.36598  0.20491  1.0000
  O   O6        1.0  0.39827  0.34251  0.14569  1.0000
  H   H22       1.0  0.39670  0.38686  0.16473  1.0000
  H   H23       1.0  0.37029  0.35305  0.23585  1.0000
  H   H24       1.0  0.41988  0.35501  0.11222  1.0000
  N   N7        1.0  0.27839  0.07936  0.27020  1.0000
  C   C35       1.0  0.30746  0.07779  0.26248  1.0000
  H   H25       1.0  0.31845  0.08110  0.20036  1.0000
  N   N8        1.0  0.43000  0.20158  0.27074  1.0000
  C   C36       1.0  0.43154  0.23219  0.26299  1.0000
  H   H26       1.0  0.42780  0.23957  0.20091  1.0000
  N   N9        1.0  0.30764  0.23110  0.26991  1.0000
  C   C37       1.0  0.27698  0.20207  0.26228  1.0000
  H   H27       1.0  0.26927  0.19109  0.20017  1.0000
  C   C38       1.0  0.48690  0.02198  0.33991  1.0000
  C   C39       1.0  0.46956  0.48584  0.33965  1.0000
  C   C40       1.0  0.48727  0.46738  0.33996  1.0000
  H   H28       1.0  0.44343  0.47265  0.33883  1.0000
  C   C41       1.0  0.25927  0.13025  0.34357  1.0000
  H   H29       1.0  0.28547  0.14386  0.34606  1.0000
  C   C42       1.0  0.41530  0.15090  0.34571  1.0000
  C   C43       1.0  0.37937  0.13183  0.34388  1.0000
  C   C44       1.0  0.36160  0.09589  0.34018  1.0000
  C   C45       1.0  0.38056  0.07883  0.33618  1.0000
  C   C46       1.0  0.41688  0.09715  0.33593  1.0000
  C   C47       1.0  0.43373  0.13331  0.34256  1.0000
  H   H30       1.0  0.36766  0.05275  0.33258  1.0000
  H   H31       1.0  0.45968  0.14713  0.34849  1.0000
  H   H32       1.0  0.36579  0.14445  0.34658  1.0000
  C   C48       1.0  0.35854  0.26688  0.34549  1.0000
  C   C49       1.0  0.37764  0.25006  0.34370  1.0000
  C   C50       1.0  0.41360  0.26826  0.34018  1.0000
  C   C51       1.0  0.43063  0.30429  0.33641  1.0000
  C   C52       1.0  0.41226  0.32224  0.33591  1.0000
  C   C53       1.0  0.37608  0.30289  0.34230  1.0000
  H   H33       1.0  0.45673  0.31749  0.33310  1.0000
  H   H34       1.0  0.36221  0.31497  0.34801  1.0000
  H   H35       1.0  0.36504  0.22388  0.34636  1.0000
  N   N10       1.0  0.42490  0.05147  0.38752  1.0000
  C   C54       1.0  0.43978  0.03183  0.39216  1.0000
  H   H36       1.0  0.43031  0.01179  0.43613  1.0000
  N   N11       1.0  0.45785  0.37596  0.38770  1.0000
  C   C55       1.0  0.47745  0.41047  0.39235  1.0000
  H   H37       1.0  0.49744  0.42106  0.43651  1.0000
  C   C56       1.0  0.26321  0.07908  0.34971  1.0000
  C   C57       1.0  0.32547  0.07929  0.34140  1.0000
  N   N12       1.0  0.31094  0.08029  0.42071  1.0000
  C   C58       1.0  0.28027  0.07881  0.43005  1.0000
  C   C59       1.0  0.27031  0.08074  0.52439  1.0000
  H   H38       1.0  0.29046  0.10393  0.55622  1.0000
  H   H39       1.0  0.26891  0.05907  0.56055  1.0000
  C   C60       1.0  0.43069  0.18689  0.35025  1.0000
  C   C61       1.0  0.43022  0.24876  0.34207  1.0000
  N   N13       1.0  0.42954  0.23340  0.42134  1.0000
  C   C62       1.0  0.43108  0.20424  0.43057  1.0000
  C   C63       1.0  0.42957  0.19249  0.52487  1.0000
  O   O7        1.0  0.43172  0.16227  0.53801  1.0000
  H   H40       1.0  0.40656  0.18958  0.55753  1.0000
  H   H41       1.0  0.45146  0.21276  0.56038  1.0000
  H   H42       1.0  0.40886  0.14233  0.52931  1.0000
  C   C64       1.0  0.32253  0.24620  0.34946  1.0000
  C   C65       1.0  0.26048  0.18406  0.34121  1.0000
  N   N14       1.0  0.27603  0.19857  0.42053  1.0000
  C   C66       1.0  0.30525  0.22921  0.42988  1.0000
  C   C67       1.0  0.31714  0.23914  0.52423  1.0000
  O   O8        1.0  0.34729  0.27154  0.53777  1.0000
  H   H43       1.0  0.32021  0.21900  0.55600  1.0000
  H   H44       1.0  0.29686  0.24053  0.56044  1.0000
  H   H45       1.0  0.36731  0.26876  0.52885  1.0000
  C   C68       1.0  0.43561  0.57927  0.33311  1.0000
  C   C69       1.0  0.46877  0.54036  0.33876  1.0000
  N   N15       1.0  0.47904  0.56765  0.28316  1.0000
  C   C70       1.0  0.46416  0.58737  0.27659  1.0000
  C   C71       1.0  0.47753  0.61396  0.20524  1.0000
  O   O9        1.0  0.45130  0.61122  0.14587  1.0000
  H   H46       1.0  0.49720  0.61273  0.16515  1.0000
  H   H47       1.0  0.48974  0.63911  0.23627  1.0000
  H   H48       1.0  0.44221  0.58963  0.11231  1.0000
  C   C72       1.0  0.43009  0.85883  0.33313  1.0000
  C   C73       1.0  0.46892  0.93090  0.33884  1.0000
  N   N16       1.0  0.44168  0.91384  0.28303  1.0000
  C   C74       1.0  0.42203  0.87925  0.27638  1.0000
  C   C75       1.0  0.39546  0.86598  0.20491  1.0000
  O   O10       1.0  0.39827  0.84251  0.14569  1.0000
  H   H49       1.0  0.39670  0.88686  0.16473  1.0000
  H   H50       1.0  0.37029  0.85305  0.23585  1.0000
  H   H51       1.0  0.41988  0.85501  0.11222  1.0000
  N   N17       1.0  0.27839  0.57936  0.27020  1.0000
  C   C76       1.0  0.30746  0.57779  0.26248  1.0000
  H   H52       1.0  0.31845  0.58110  0.20036  1.0000
  N   N18       1.0  0.43000  0.70158  0.27074  1.0000
  C   C77       1.0  0.43154  0.73219  0.26299  1.0000
  H   H53       1.0  0.42780  0.73957  0.20091  1.0000
  N   N19       1.0  0.30764  0.73110  0.26991  1.0000
  C   C78       1.0  0.27698  0.70207  0.26228  1.0000
  H   H54       1.0  0.26927  0.69109  0.20017  1.0000
  C   C79       1.0  0.48690  0.52198  0.33991  1.0000
  C   C80       1.0  0.46956  0.98584  0.33965  1.0000
  C   C81       1.0  0.48727  0.96738  0.33996  1.0000
  H   H55       1.0  0.44342  0.97265  0.33883  1.0000
  C   C82       1.0  0.25927  0.63025  0.34357  1.0000
  H   H56       1.0  0.28547  0.64386  0.34606  1.0000
  C   C83       1.0  0.41530  0.65090  0.34571  1.0000
  C   C84       1.0  0.37937  0.63183  0.34388  1.0000
  C   C85       1.0  0.36160  0.59589  0.34018  1.0000
  C   C86       1.0  0.38056  0.57883  0.33618  1.0000
  C   C87       1.0  0.41688  0.59715  0.33593  1.0000
  C   C88       1.0  0.43374  0.63331  0.34256  1.0000
  H   H57       1.0  0.36766  0.55275  0.33258  1.0000
  H   H58       1.0  0.45968  0.64713  0.34849  1.0000
  H   H59       1.0  0.36579  0.64445  0.34658  1.0000
  C   C89       1.0  0.35854  0.76689  0.34549  1.0000
  C   C90       1.0  0.37764  0.75006  0.34370  1.0000
  C   C91       1.0  0.41360  0.76826  0.34018  1.0000
  C   C92       1.0  0.43064  0.80429  0.33641  1.0000
  C   C93       1.0  0.41226  0.82224  0.33591  1.0000
  C   C94       1.0  0.37608  0.80289  0.34230  1.0000
  H   H60       1.0  0.45673  0.81749  0.33310  1.0000
  H   H61       1.0  0.36221  0.81497  0.34801  1.0000
  H   H62       1.0  0.36504  0.72388  0.34636  1.0000
  N   N20       1.0  0.42490  0.55147  0.38752  1.0000
  C   C95       1.0  0.43978  0.53183  0.39216  1.0000
  H   H63       1.0  0.43031  0.51179  0.43613  1.0000
  N   N21       1.0  0.45785  0.87596  0.38770  1.0000
  C   C96       1.0  0.47745  0.91047  0.39235  1.0000
  H   H64       1.0  0.49744  0.92106  0.43651  1.0000
  C   C97       1.0  0.26321  0.57908  0.34971  1.0000
  C   C98       1.0  0.32547  0.57929  0.34140  1.0000
  N   N22       1.0  0.31094  0.58029  0.42071  1.0000
  C   C99       1.0  0.28027  0.57881  0.43005  1.0000
  C   C100      1.0  0.27031  0.58074  0.52439  1.0000
  H   H65       1.0  0.29046  0.60393  0.55622  1.0000
  H   H66       1.0  0.26891  0.55907  0.56055  1.0000
  C   C101      1.0  0.43069  0.68689  0.35025  1.0000
  C   C102      1.0  0.43022  0.74876  0.34207  1.0000
  N   N23       1.0  0.42954  0.73340  0.42134  1.0000
  C   C103      1.0  0.43108  0.70424  0.43057  1.0000
  C   C104      1.0  0.42958  0.69250  0.52487  1.0000
  O   O11       1.0  0.43172  0.66227  0.53801  1.0000
  H   H67       1.0  0.40656  0.68958  0.55753  1.0000
  H   H68       1.0  0.45146  0.71276  0.56038  1.0000
  H   H69       1.0  0.40886  0.64234  0.52931  1.0000
  C   C105      1.0  0.32253  0.74620  0.34946  1.0000
  C   C106      1.0  0.26048  0.68406  0.34121  1.0000
  N   N24       1.0  0.27603  0.69857  0.42053  1.0000
  C   C107      1.0  0.30525  0.72921  0.42988  1.0000
  C   C108      1.0  0.31714  0.73915  0.52423  1.0000
  O   O12       1.0  0.34729  0.77154  0.53777  1.0000
  H   H70       1.0  0.32021  0.71900  0.55600  1.0000
  H   H71       1.0  0.29686  0.74053  0.56044  1.0000
  H   H72       1.0  0.36731  0.76875  0.52885  1.0000
  C   C109      1.0  0.65047  0.07382  0.33311  1.0000
  C   C110      1.0  0.57838  0.04048  0.33891  1.0000
  N   N25       1.0  0.59546  0.03033  0.28311  1.0000
  C   C111      1.0  0.63008  0.04532  0.27644  1.0000
  C   C112      1.0  0.64338  0.03204  0.20501  1.0000
  O   O13       1.0  0.66681  0.05831  0.14571  1.0000
  H   H73       1.0  0.62251  0.01236  0.16489  1.0000
  H   H74       1.0  0.65638  0.01987  0.23599  1.0000
  H   H75       1.0  0.65426  0.06735  0.11221  1.0000
  C   C113      1.0  0.93561  0.07927  0.33311  1.0000
  C   C114      1.0  0.96877  0.04035  0.33876  1.0000
  N   N26       1.0  0.97904  0.06765  0.28316  1.0000
  C   C115      1.0  0.96415  0.08736  0.27659  1.0000
  C   C116      1.0  0.97752  0.11396  0.20524  1.0000
  O   O14       1.0  0.95130  0.11121  0.14587  1.0000
  H   H76       1.0  0.99720  0.11273  0.16515  1.0000
  H   H77       1.0  0.98974  0.13911  0.23627  1.0000
  H   H78       1.0  0.94221  0.08963  0.11231  1.0000
  C   C117      1.0  0.93009  0.35883  0.33313  1.0000
  C   C118      1.0  0.96892  0.43089  0.33884  1.0000
  N   N27       1.0  0.94168  0.41384  0.28303  1.0000
  C   C119      1.0  0.92203  0.37924  0.27638  1.0000
  C   C120      1.0  0.89546  0.36598  0.20491  1.0000
  O   O15       1.0  0.89827  0.34251  0.14569  1.0000
  H   H79       1.0  0.89670  0.38686  0.16473  1.0000
  H   H80       1.0  0.87029  0.35305  0.23585  1.0000
  H   H81       1.0  0.91989  0.35501  0.11222  1.0000
  N   N28       1.0  0.77839  0.07936  0.27020  1.0000
  C   C121      1.0  0.80746  0.07779  0.26248  1.0000
  H   H82       1.0  0.81845  0.08110  0.20036  1.0000
  N   N29       1.0  0.93000  0.20158  0.27074  1.0000
  C   C122      1.0  0.93154  0.23219  0.26299  1.0000
  H   H83       1.0  0.92780  0.23957  0.20091  1.0000
  N   N30       1.0  0.80764  0.23110  0.26991  1.0000
  C   C123      1.0  0.77698  0.20207  0.26228  1.0000
  H   H84       1.0  0.76927  0.19109  0.20017  1.0000
  C   C124      1.0  0.54188  0.02233  0.34001  1.0000
  C   C125      1.0  0.52307  0.03967  0.33970  1.0000
  C   C126      1.0  0.98690  0.02198  0.33991  1.0000
  C   C127      1.0  0.96956  0.48584  0.33965  1.0000
  C   C128      1.0  0.98727  0.46738  0.33996  1.0000
  C   C129      1.0  0.52342  0.48618  0.33975  1.0000
  H   H85       1.0  0.94343  0.47265  0.33883  1.0000
  H   H86       1.0  0.53663  0.47326  0.33897  1.0000
  H   H87       1.0  0.53600  0.06579  0.33891  1.0000
  C   C130      1.0  0.74249  0.09434  0.34553  1.0000
  C   C131      1.0  0.75927  0.13025  0.34357  1.0000
  C   C132      1.0  0.74102  0.14795  0.33998  1.0000
  C   C133      1.0  0.70498  0.12892  0.33615  1.0000
  C   C134      1.0  0.68707  0.09262  0.33589  1.0000
  C   C135      1.0  0.70647  0.07584  0.34244  1.0000
  H   H88       1.0  0.69174  0.14177  0.33262  1.0000
  H   H89       1.0  0.69441  0.04990  0.34832  1.0000
  H   H90       1.0  0.78547  0.14386  0.34606  1.0000
  C   C136      1.0  0.91530  0.15090  0.34571  1.0000
  C   C137      1.0  0.87937  0.13183  0.34388  1.0000
  C   C138      1.0  0.86160  0.09589  0.34018  1.0000
  C   C139      1.0  0.88056  0.07883  0.33618  1.0000
  C   C140      1.0  0.91688  0.09715  0.33593  1.0000
  C   C141      1.0  0.93374  0.13331  0.34256  1.0000
  H   H91       1.0  0.86766  0.05275  0.33258  1.0000
  H   H92       1.0  0.95968  0.14713  0.34849  1.0000
  H   H93       1.0  0.86579  0.14445  0.34658  1.0000
  C   C142      1.0  0.85854  0.26688  0.34549  1.0000
  C   C143      1.0  0.87764  0.25006  0.34370  1.0000
  C   C144      1.0  0.91360  0.26826  0.34018  1.0000
  C   C145      1.0  0.93064  0.30429  0.33641  1.0000
  C   C146      1.0  0.91226  0.32224  0.33591  1.0000
  C   C147      1.0  0.87608  0.30289  0.34230  1.0000
  H   H94       1.0  0.95673  0.31749  0.33310  1.0000
  H   H95       1.0  0.86221  0.31497  0.34801  1.0000
  H   H96       1.0  0.86504  0.22388  0.34636  1.0000
  N   N31       1.0  0.63332  0.08441  0.38770  1.0000
  C   C148      1.0  0.59879  0.06946  0.39238  1.0000
  H   H97       1.0  0.58818  0.07883  0.43653  1.0000
  N   N32       1.0  0.92490  0.05147  0.38752  1.0000
  C   C149      1.0  0.93978  0.03183  0.39216  1.0000
  H   H98       1.0  0.93031  0.01179  0.43613  1.0000
  N   N33       1.0  0.95785  0.37596  0.38770  1.0000
  C   C150      1.0  0.97745  0.41047  0.39235  1.0000
  H   H99       1.0  0.99744  0.42106  0.43651  1.0000
  C   C151      1.0  0.76321  0.07908  0.34971  1.0000
  C   C152      1.0  0.82547  0.07929  0.34140  1.0000
  N   N34       1.0  0.81095  0.08029  0.42071  1.0000
  C   C153      1.0  0.78027  0.07881  0.43005  1.0000
  C   C154      1.0  0.77031  0.08074  0.52439  1.0000
  O   O16       1.0  0.73790  0.07850  0.53791  1.0000
  H   H100      1.0  0.79046  0.10393  0.55622  1.0000
  H   H101      1.0  0.76891  0.05907  0.56055  1.0000
  H   H102      1.0  0.74069  0.10129  0.52893  1.0000
  C   C155      1.0  0.93069  0.18689  0.35025  1.0000
  C   C156      1.0  0.93022  0.24876  0.34207  1.0000
  N   N35       1.0  0.92954  0.23340  0.42134  1.0000
  C   C157      1.0  0.93108  0.20424  0.43057  1.0000
  C   C158      1.0  0.92958  0.19249  0.52487  1.0000
  O   O17       1.0  0.93172  0.16227  0.53801  1.0000
  H   H103      1.0  0.90656  0.18958  0.55753  1.0000
  H   H104      1.0  0.95146  0.21276  0.56038  1.0000
  H   H105      1.0  0.90886  0.14233  0.52931  1.0000
  C   C159      1.0  0.82253  0.24620  0.34946  1.0000
  C   C160      1.0  0.76048  0.18406  0.34121  1.0000
  N   N36       1.0  0.77603  0.19857  0.42053  1.0000
  C   C161      1.0  0.80525  0.22921  0.42988  1.0000
  C   C162      1.0  0.81714  0.23914  0.52423  1.0000
  O   O18       1.0  0.84729  0.27154  0.53777  1.0000
  H   H106      1.0  0.82021  0.21900  0.55600  1.0000
  H   H107      1.0  0.79686  0.24053  0.56044  1.0000
  H   H108      1.0  0.86731  0.26876  0.52885  1.0000
  C   C163      1.0  0.65047  0.57382  0.33311  1.0000
  C   C164      1.0  0.57838  0.54048  0.33891  1.0000
  N   N37       1.0  0.59546  0.53033  0.28311  1.0000
  C   C165      1.0  0.63008  0.54532  0.27644  1.0000
  C   C166      1.0  0.64338  0.53204  0.20501  1.0000
  O   O19       1.0  0.66681  0.55831  0.14571  1.0000
  H   H109      1.0  0.62251  0.51236  0.16489  1.0000
  H   H110      1.0  0.65638  0.51987  0.23599  1.0000
  H   H111      1.0  0.65425  0.56736  0.11221  1.0000
  C   C167      1.0  0.93561  0.57927  0.33311  1.0000
  C   C168      1.0  0.96877  0.54036  0.33876  1.0000
  N   N38       1.0  0.97904  0.56765  0.28316  1.0000
  C   C169      1.0  0.96416  0.58737  0.27659  1.0000
  C   C170      1.0  0.97753  0.61396  0.20524  1.0000
  O   O20       1.0  0.95130  0.61122  0.14587  1.0000
  H   H112      1.0  0.99720  0.61273  0.16515  1.0000
  H   H113      1.0  0.98974  0.63911  0.23627  1.0000
  H   H114      1.0  0.94221  0.58963  0.11231  1.0000
  C   C171      1.0  0.93009  0.85883  0.33313  1.0000
  C   C172      1.0  0.96892  0.93090  0.33884  1.0000
  N   N39       1.0  0.94168  0.91384  0.28303  1.0000
  C   C173      1.0  0.92203  0.87925  0.27638  1.0000
  C   C174      1.0  0.89547  0.86598  0.20491  1.0000
  O   O21       1.0  0.89827  0.84251  0.14569  1.0000
  H   H115      1.0  0.89670  0.88686  0.16473  1.0000
  H   H116      1.0  0.87029  0.85305  0.23585  1.0000
  H   H117      1.0  0.91989  0.85501  0.11222  1.0000
  N   N40       1.0  0.77839  0.57936  0.27020  1.0000
  C   C175      1.0  0.80746  0.57779  0.26248  1.0000
  H   H118      1.0  0.81845  0.58110  0.20036  1.0000
  N   N41       1.0  0.93000  0.70158  0.27074  1.0000
  C   C176      1.0  0.93154  0.73219  0.26299  1.0000
  H   H119      1.0  0.92780  0.73957  0.20091  1.0000
  N   N42       1.0  0.80764  0.73110  0.26991  1.0000
  C   C177      1.0  0.77698  0.70207  0.26228  1.0000
  H   H120      1.0  0.76927  0.69109  0.20017  1.0000
  C   C178      1.0  0.54188  0.52233  0.34001  1.0000
  C   C179      1.0  0.52307  0.53967  0.33970  1.0000
  C   C180      1.0  0.98690  0.52198  0.33991  1.0000
  C   C181      1.0  0.96956  0.98584  0.33965  1.0000
  C   C182      1.0  0.98727  0.96738  0.33996  1.0000
  C   C183      1.0  0.52342  0.98618  0.33975  1.0000
  H   H121      1.0  0.94343  0.97265  0.33883  1.0000
  H   H122      1.0  0.53663  0.97326  0.33897  1.0000
  H   H123      1.0  0.53600  0.56579  0.33891  1.0000
  C   C184      1.0  0.74249  0.59434  0.34553  1.0000
  C   C185      1.0  0.75927  0.63025  0.34357  1.0000
  C   C186      1.0  0.74102  0.64795  0.33998  1.0000
  C   C187      1.0  0.70498  0.62892  0.33615  1.0000
  C   C188      1.0  0.68707  0.59262  0.33589  1.0000
  C   C189      1.0  0.70647  0.57584  0.34244  1.0000
  H   H124      1.0  0.69174  0.64177  0.33262  1.0000
  H   H125      1.0  0.69441  0.54990  0.34832  1.0000
  H   H126      1.0  0.78547  0.64386  0.34606  1.0000
  C   C190      1.0  0.91530  0.65090  0.34571  1.0000
  C   C191      1.0  0.87937  0.63183  0.34388  1.0000
  C   C192      1.0  0.86160  0.59589  0.34018  1.0000
  C   C193      1.0  0.88056  0.57883  0.33618  1.0000
  C   C194      1.0  0.91688  0.59715  0.33593  1.0000
  C   C195      1.0  0.93374  0.63331  0.34256  1.0000
  H   H127      1.0  0.86766  0.55275  0.33258  1.0000
  H   H128      1.0  0.95968  0.64713  0.34849  1.0000
  H   H129      1.0  0.86580  0.64445  0.34658  1.0000
  C   C196      1.0  0.85854  0.76689  0.34549  1.0000
  C   C197      1.0  0.87764  0.75006  0.34370  1.0000
  C   C198      1.0  0.91360  0.76826  0.34018  1.0000
  C   C199      1.0  0.93064  0.80429  0.33641  1.0000
  C   C200      1.0  0.91226  0.82224  0.33591  1.0000
  C   C201      1.0  0.87608  0.80289  0.34230  1.0000
  H   H130      1.0  0.95673  0.81749  0.33310  1.0000
  H   H131      1.0  0.86221  0.81497  0.34801  1.0000
  H   H132      1.0  0.86505  0.72388  0.34636  1.0000
  N   N43       1.0  0.63332  0.58441  0.38770  1.0000
  C   C202      1.0  0.59879  0.56946  0.39238  1.0000
  H   H133      1.0  0.58818  0.57883  0.43653  1.0000
  N   N44       1.0  0.92490  0.55147  0.38752  1.0000
  C   C203      1.0  0.93978  0.53183  0.39216  1.0000
  H   H134      1.0  0.93031  0.51179  0.43613  1.0000
  N   N45       1.0  0.95785  0.87596  0.38770  1.0000
  C   C204      1.0  0.97745  0.91047  0.39235  1.0000
  H   H135      1.0  0.99744  0.92106  0.43651  1.0000
  C   C205      1.0  0.76321  0.57908  0.34971  1.0000
  C   C206      1.0  0.82547  0.57929  0.34140  1.0000
  N   N46       1.0  0.81094  0.58029  0.42071  1.0000
  C   C207      1.0  0.78027  0.57881  0.43005  1.0000
  C   C208      1.0  0.77031  0.58074  0.52439  1.0000
  O   O22       1.0  0.73790  0.57850  0.53791  1.0000
  H   H136      1.0  0.79046  0.60393  0.55622  1.0000
  H   H137      1.0  0.76892  0.55907  0.56055  1.0000
  H   H138      1.0  0.74069  0.60129  0.52893  1.0000
  C   C209      1.0  0.93069  0.68689  0.35025  1.0000
  C   C210      1.0  0.93022  0.74876  0.34207  1.0000
  N   N47       1.0  0.92954  0.73340  0.42134  1.0000
  C   C211      1.0  0.93108  0.70424  0.43057  1.0000
  C   C212      1.0  0.92958  0.69250  0.52487  1.0000
  O   O23       1.0  0.93172  0.66227  0.53801  1.0000
  H   H139      1.0  0.90656  0.68958  0.55753  1.0000
  H   H140      1.0  0.95146  0.71276  0.56038  1.0000
  H   H141      1.0  0.90886  0.64234  0.52931  1.0000
  C   C213      1.0  0.82253  0.74620  0.34946  1.0000
  C   C214      1.0  0.76048  0.68406  0.34121  1.0000
  N   N48       1.0  0.77603  0.69857  0.42053  1.0000
  C   C215      1.0  0.80525  0.72921  0.42988  1.0000
  C   C216      1.0  0.81714  0.73915  0.52423  1.0000
  O   O24       1.0  0.84729  0.77154  0.53777  1.0000
  H   H142      1.0  0.82021  0.71900  0.55600  1.0000
  H   H143      1.0  0.79686  0.74053  0.56044  1.0000
  H   H144      1.0  0.86731  0.76875  0.52885  1.0000
