data_image0
_chemical_formula_structural       C3NC3NC5NC5NC20H18N4C3NC3NC5NC5NC20H18N4C3NC3NC5NC5NC20H18N4C3H3CHC3H3CHC3H3CHC3H3CHC3H3CHC3H3CHC8H8C8H8C8H8C3NC2NHCH2CHC3NC2NHCH2CHC3NC2NHCH2CHC3NC2NHCH2CHC3NC2NHCH2CHC3NC2NHCH2CH
_chemical_formula_sum              "C198 N36 H126"
_cell_length_a       50.7058
_cell_length_b       50.7058
_cell_length_c       14.8652
_cell_angle_alpha    90.0972
_cell_angle_beta     89.9028
_cell_angle_gamma    120

_space_group_name_H-M_alt    "P 1"
_space_group_IT_number       1

loop_
  _space_group_symop_operation_xyz
  'x, y, z'

loop_
  _atom_site_type_symbol
  _atom_site_label
  _atom_site_symmetry_multiplicity
  _atom_site_fract_x
  _atom_site_fract_y
  _atom_site_fract_z
  _atom_site_occupancy
  C   C1        1.0  0.05061  0.65226  0.32629  1.0000
  C   C2        1.0  0.01911  0.63654  0.32606  1.0000
  C   C3        1.0  0.00906  0.60537  0.32450  1.0000
  N   N1        1.0  0.03481  0.60343  0.32378  1.0000
  C   C4        1.0  0.06060  0.63109  0.32492  1.0000
  C   C5        1.0  0.09164  0.63845  0.32462  1.0000
  C   C6        1.0  0.10145  0.61662  0.32391  1.0000
  N   N2        1.0  0.08422  0.58587  0.32398  1.0000
  C   C7        1.0  0.10139  0.57229  0.32359  1.0000
  C   C8        1.0  0.13165  0.59594  0.32307  1.0000
  C   C9        1.0  0.13169  0.62315  0.32351  1.0000
  C   C10       1.0  0.09151  0.54063  0.32401  1.0000
  C   C11       1.0  0.06045  0.51699  0.32452  1.0000
  N   N3        1.0  0.03470  0.51893  0.32374  1.0000
  C   C12       1.0  0.00892  0.49127  0.32493  1.0000
  C   C13       1.0  0.01890  0.47010  0.32641  1.0000
  C   C14       1.0  0.05040  0.48582  0.32620  1.0000
  C   C15       1.0  0.97788  0.48391  0.32460  1.0000
  C   C16       1.0  0.96806  0.50574  0.32388  1.0000
  N   N4        1.0  0.98529  0.53649  0.32394  1.0000
  C   C17       1.0  0.96812  0.55007  0.32359  1.0000
  C   C18       1.0  0.93786  0.52642  0.32313  1.0000
  C   C19       1.0  0.93782  0.49920  0.32355  1.0000
  C   C20       1.0  0.97800  0.58173  0.32403  1.0000
  C   C21       1.0  0.95481  0.58995  0.32500  1.0000
  C   C22       1.0  0.90276  0.59784  0.32568  1.0000
  C   C23       1.0  0.91721  0.59791  0.24428  1.0000
  C   C24       1.0  0.94275  0.59383  0.24369  1.0000
  C   C25       1.0  0.95463  0.45252  0.32620  1.0000
  C   C26       1.0  0.90233  0.39285  0.33077  1.0000
  C   C27       1.0  0.91471  0.40766  0.24787  1.0000
  C   C28       1.0  0.94048  0.43711  0.24563  1.0000
  C   C29       1.0  0.11469  0.53240  0.32504  1.0000
  C   C30       1.0  0.12665  0.52822  0.24375  1.0000
  C   C31       1.0  0.15212  0.52404  0.24435  1.0000
  C   C32       1.0  0.16655  0.52419  0.32572  1.0000
  C   C33       1.0  0.11489  0.66984  0.32616  1.0000
  C   C34       1.0  0.12911  0.68519  0.24560  1.0000
  C   C35       1.0  0.16733  0.72941  0.33076  1.0000
  C   C36       1.0  0.15494  0.71460  0.24785  1.0000
  H   H1        1.0  0.16529  0.72454  0.18848  1.0000
  H   H2        1.0  0.12147  0.67453  0.18483  1.0000
  H   H3        1.0  0.06381  0.67546  0.32732  1.0000
  H   H4        1.0  0.00594  0.64658  0.32702  1.0000
  H   H5        1.0  0.03479  0.58447  0.32230  1.0000
  H   H6        1.0  0.03472  0.53788  0.32206  1.0000
  H   H7        1.0  0.15091  0.64412  0.32351  1.0000
  H   H8        1.0  0.15084  0.59413  0.32269  1.0000
  H   H9        1.0  0.11752  0.52924  0.18337  1.0000
  H   H10       1.0  0.16070  0.52183  0.18419  1.0000
  H   H11       1.0  0.06357  0.47579  0.32723  1.0000
  H   H12       1.0  0.00570  0.44690  0.32753  1.0000
  H   H13       1.0  0.91867  0.52822  0.32287  1.0000
  H   H14       1.0  0.91860  0.47823  0.32364  1.0000
  H   H15       1.0  0.94814  0.44773  0.18487  1.0000
  H   H16       1.0  0.90446  0.39764  0.18847  1.0000
  H   H17       1.0  0.95189  0.59274  0.18330  1.0000
  H   H18       1.0  0.90856  0.59989  0.18411  1.0000
  N   N5        1.0  0.87684  0.36594  0.33893  1.0000
  N   N6        1.0  0.19162  0.52178  0.31993  1.0000
  N   N7        1.0  0.19294  0.75622  0.33896  1.0000
  N   N8        1.0  0.87759  0.60005  0.31990  1.0000
  C   C37       1.0  0.44313  0.48483  0.32547  1.0000
  C   C38       1.0  0.45885  0.46906  0.32520  1.0000
  C   C39       1.0  0.49002  0.49019  0.32359  1.0000
  N   N9        1.0  0.49195  0.51787  0.32288  1.0000
  C   C40       1.0  0.46429  0.51599  0.32408  1.0000
  C   C41       1.0  0.45692  0.53967  0.32380  1.0000
  C   C42       1.0  0.47876  0.57132  0.32305  1.0000
  N   N10       1.0  0.50950  0.58484  0.32308  1.0000
  C   C43       1.0  0.52308  0.61559  0.32269  1.0000
  C   C44       1.0  0.49943  0.62220  0.32219  1.0000
  C   C45       1.0  0.47221  0.59502  0.32267  1.0000
  C   C46       1.0  0.55474  0.63738  0.32310  1.0000
  C   C47       1.0  0.57838  0.62995  0.32357  1.0000
  N   N11       1.0  0.57644  0.60227  0.32281  1.0000
  C   C48       1.0  0.60411  0.60415  0.32403  1.0000
  C   C49       1.0  0.62527  0.63531  0.32548  1.0000
  C   C50       1.0  0.60954  0.65108  0.32524  1.0000
  C   C51       1.0  0.61148  0.58048  0.32372  1.0000
  C   C52       1.0  0.58965  0.54883  0.32299  1.0000
  N   N12       1.0  0.55890  0.53531  0.32303  1.0000
  C   C53       1.0  0.54533  0.50456  0.32269  1.0000
  C   C54       1.0  0.56898  0.49795  0.32224  1.0000
  C   C55       1.0  0.59619  0.52513  0.32266  1.0000
  C   C56       1.0  0.51366  0.48277  0.32308  1.0000
  C   C57       1.0  0.50545  0.45136  0.32406  1.0000
  C   C58       1.0  0.49753  0.39141  0.32476  1.0000
  C   C59       1.0  0.49748  0.40573  0.24335  1.0000
  C   C60       1.0  0.50154  0.43533  0.24275  1.0000
  C   C61       1.0  0.64286  0.58863  0.32538  1.0000
  C   C62       1.0  0.70254  0.59603  0.33027  1.0000
  C   C63       1.0  0.68776  0.59348  0.24732  1.0000
  C   C64       1.0  0.65831  0.58979  0.24491  1.0000
  C   C65       1.0  0.56296  0.66879  0.32411  1.0000
  C   C66       1.0  0.56713  0.68483  0.24282  1.0000
  C   C67       1.0  0.57132  0.71449  0.24342  1.0000
  C   C68       1.0  0.57116  0.72885  0.32479  1.0000
  C   C69       1.0  0.42553  0.53153  0.32546  1.0000
  C   C70       1.0  0.41015  0.53031  0.24497  1.0000
  C   C71       1.0  0.36597  0.52442  0.33033  1.0000
  C   C72       1.0  0.38076  0.52678  0.24737  1.0000
  H   H19       1.0  0.37078  0.52710  0.18803  1.0000
  H   H20       1.0  0.42079  0.53329  0.18416  1.0000
  H   H21       1.0  0.41992  0.47483  0.32656  1.0000
  H   H22       1.0  0.44882  0.44586  0.32618  1.0000
  H   H23       1.0  0.51091  0.53681  0.32135  1.0000
  H   H24       1.0  0.55749  0.58333  0.32121  1.0000
  H   H25       1.0  0.45124  0.59327  0.32273  1.0000
  H   H26       1.0  0.50123  0.64319  0.32187  1.0000
  H   H27       1.0  0.56610  0.67462  0.18244  1.0000
  H   H28       1.0  0.57351  0.72521  0.18327  1.0000
  H   H29       1.0  0.61958  0.67429  0.32629  1.0000
  H   H30       1.0  0.64847  0.64531  0.32661  1.0000
  H   H31       1.0  0.56718  0.47696  0.32191  1.0000
  H   H32       1.0  0.61717  0.52689  0.32273  1.0000
  H   H33       1.0  0.64771  0.58675  0.18411  1.0000
  H   H34       1.0  0.69780  0.59317  0.18797  1.0000
  H   H35       1.0  0.50264  0.44552  0.18236  1.0000
  H   H36       1.0  0.49545  0.39501  0.18319  1.0000
  N   N13       1.0  0.72944  0.59742  0.33862  1.0000
  N   N14       1.0  0.57357  0.75632  0.31901  1.0000
  N   N15       1.0  0.33916  0.52321  0.33865  1.0000
  N   N16       1.0  0.49530  0.36401  0.31898  1.0000
  C   C73       1.0  0.61053  0.04478  0.32511  1.0000
  C   C74       1.0  0.62631  0.07628  0.32493  1.0000
  C   C75       1.0  0.60519  0.08632  0.32329  1.0000
  N   N17       1.0  0.57750  0.06057  0.32248  1.0000
  C   C76       1.0  0.57938  0.03479  0.32364  1.0000
  C   C77       1.0  0.55569  0.00375  0.32326  1.0000
  C   C78       1.0  0.52404  0.99393  0.32256  1.0000
  N   N18       1.0  0.51053  0.01116  0.32268  1.0000
  C   C79       1.0  0.47978  0.99399  0.32235  1.0000
  C   C80       1.0  0.47316  0.96373  0.32183  1.0000
  C   C81       1.0  0.50034  0.96369  0.32220  1.0000
  C   C82       1.0  0.45800  0.00387  0.32285  1.0000
  C   C83       1.0  0.46542  0.03494  0.32329  1.0000
  N   N19       1.0  0.49311  0.06068  0.32246  1.0000
  C   C84       1.0  0.49123  0.08646  0.32364  1.0000
  C   C85       1.0  0.46008  0.07648  0.32513  1.0000
  C   C86       1.0  0.44430  0.04498  0.32497  1.0000
  C   C87       1.0  0.51491  0.11751  0.32329  1.0000
  C   C88       1.0  0.54656  0.12732  0.32261  1.0000
  N   N20       1.0  0.56008  0.11009  0.32269  1.0000
  C   C89       1.0  0.59083  0.12727  0.32238  1.0000
  C   C90       1.0  0.59744  0.15753  0.32189  1.0000
  C   C91       1.0  0.57026  0.15756  0.32226  1.0000
  C   C92       1.0  0.61261  0.11739  0.32284  1.0000
  C   C93       1.0  0.64402  0.14058  0.32392  1.0000
  C   C94       1.0  0.70396  0.19263  0.32495  1.0000
  C   C95       1.0  0.68970  0.17821  0.24346  1.0000
  C   C96       1.0  0.66009  0.15265  0.24270  1.0000
  C   C97       1.0  0.50676  0.14075  0.32488  1.0000
  C   C98       1.0  0.49936  0.19303  0.32961  1.0000
  C   C99       1.0  0.50190  0.18069  0.24668  1.0000
  C   C100      1.0  0.50558  0.15491  0.24436  1.0000
  C   C101      1.0  0.42658  0.98069  0.32399  1.0000
  C   C102      1.0  0.41049  0.96869  0.24280  1.0000
  C   C103      1.0  0.38082  0.94323  0.24356  1.0000
  C   C104      1.0  0.36652  0.92881  0.32501  1.0000
  C   C105      1.0  0.56383  0.98049  0.32487  1.0000
  C   C106      1.0  0.56502  0.96625  0.24434  1.0000
  C   C107      1.0  0.57093  0.92804  0.32962  1.0000
  C   C108      1.0  0.56857  0.94040  0.24668  1.0000
  H   H37       1.0  0.56827  0.93007  0.18731  1.0000
  H   H38       1.0  0.56207  0.97388  0.18356  1.0000
  H   H39       1.0  0.62053  0.03157  0.32619  1.0000
  H   H40       1.0  0.64951  0.08944  0.32598  1.0000
  H   H41       1.0  0.55857  0.06059  0.32086  1.0000
  H   H42       1.0  0.51204  0.06066  0.32086  1.0000
  H   H43       1.0  0.50209  0.94447  0.32221  1.0000
  H   H44       1.0  0.45217  0.94454  0.32150  1.0000
  H   H45       1.0  0.42064  0.97782  0.18236  1.0000
  H   H46       1.0  0.37006  0.93463  0.18347  1.0000
  H   H47       1.0  0.42109  0.03182  0.32605  1.0000
  H   H48       1.0  0.45008  0.08968  0.32625  1.0000
  H   H49       1.0  0.61843  0.17672  0.32157  1.0000
  H   H50       1.0  0.56851  0.17678  0.32228  1.0000
  H   H51       1.0  0.50866  0.14731  0.18358  1.0000
  H   H52       1.0  0.50224  0.19099  0.18732  1.0000
  H   H53       1.0  0.64995  0.14353  0.18226  1.0000
  H   H54       1.0  0.70045  0.18686  0.18336  1.0000
  N   N21       1.0  0.49795  0.21853  0.33787  1.0000
  N   N22       1.0  0.33905  0.90375  0.31938  1.0000
  N   N23       1.0  0.57215  0.90245  0.33788  1.0000
  N   N24       1.0  0.73135  0.21780  0.31933  1.0000
  C   C109      1.0  0.29146  0.51936  0.31035  1.0000
  C   C110      1.0  0.27552  0.52622  0.24485  1.0000
  C   C111      1.0  0.24919  0.52758  0.26660  1.0000
  H   H55       1.0  0.23908  0.53332  0.21675  1.0000
  H   H56       1.0  0.28325  0.53082  0.17982  1.0000
  H   H57       1.0  0.30722  0.50999  0.00889  1.0000
  C   C112      1.0  0.31760  0.51858  0.28388  1.0000
  H   H58       1.0  0.31990  0.51490  0.21938  1.0000
  C   C113      1.0  0.57600  0.85858  0.30951  1.0000
  C   C114      1.0  0.56915  0.83573  0.24399  1.0000
  C   C115      1.0  0.56779  0.80805  0.26572  1.0000
  H   H59       1.0  0.56204  0.79215  0.21587  1.0000
  H   H60       1.0  0.56454  0.83878  0.17898  1.0000
  H   H61       1.0  0.58538  0.88372  0.00807  1.0000
  C   C116      1.0  0.57678  0.88547  0.28307  1.0000
  H   H62       1.0  0.58045  0.89140  0.21858  1.0000
  C   C117      1.0  0.23679  0.80392  0.31041  1.0000
  C   C118      1.0  0.25960  0.81982  0.24477  1.0000
  C   C119      1.0  0.28729  0.84615  0.26635  1.0000
  H   H63       1.0  0.30317  0.85624  0.21641  1.0000
  H   H64       1.0  0.25650  0.81207  0.17977  1.0000
  H   H65       1.0  0.21188  0.78829  0.00911  1.0000
  C   C120      1.0  0.20987  0.77778  0.28411  1.0000
  H   H66       1.0  0.20388  0.77547  0.21966  1.0000
  C   C121      1.0  0.77732  0.60162  0.31033  1.0000
  C   C122      1.0  0.79341  0.59487  0.24485  1.0000
  C   C123      1.0  0.81986  0.59377  0.26661  1.0000
  H   H67       1.0  0.83009  0.58809  0.21678  1.0000
  H   H68       1.0  0.78573  0.59015  0.17984  1.0000
  H   H69       1.0  0.76142  0.61093  0.00884  1.0000
  C   C124      1.0  0.75108  0.60216  0.28384  1.0000
  H   H70       1.0  0.74878  0.60577  0.21934  1.0000
  C   C125      1.0  0.49375  0.26217  0.30949  1.0000
  C   C126      1.0  0.50050  0.28495  0.24399  1.0000
  C   C127      1.0  0.50159  0.31252  0.26572  1.0000
  H   H71       1.0  0.50728  0.32838  0.21589  1.0000
  H   H72       1.0  0.50522  0.28191  0.17900  1.0000
  H   H73       1.0  0.48441  0.23702  0.00802  1.0000
  C   C128      1.0  0.49323  0.23537  0.28304  1.0000
  H   H74       1.0  0.48965  0.22941  0.21854  1.0000
  C   C129      1.0  0.83322  0.31806  0.31037  1.0000
  C   C130      1.0  0.81048  0.30198  0.24476  1.0000
  C   C131      1.0  0.78289  0.27554  0.26637  1.0000
  H   H75       1.0  0.76707  0.26531  0.21644  1.0000
  H   H76       1.0  0.81355  0.30969  0.17978  1.0000
  H   H77       1.0  0.85817  0.33382  0.00902  1.0000
  C   C132      1.0  0.86003  0.34432  0.28405  1.0000
  H   H78       1.0  0.86602  0.34667  0.21955  1.0000
  C   C133      1.0  0.94089  0.59058  0.40680  1.0000
  C   C134      1.0  0.91530  0.59456  0.40714  1.0000
  C   C135      1.0  0.94257  0.43762  0.40896  1.0000
  C   C136      1.0  0.91678  0.40820  0.41101  1.0000
  C   C137      1.0  0.15410  0.52777  0.40715  1.0000
  C   C138      1.0  0.12861  0.53190  0.40681  1.0000
  C   C139      1.0  0.12695  0.68476  0.40894  1.0000
  C   C140      1.0  0.15280  0.71413  0.41100  1.0000
  H   H79       1.0  0.16153  0.72398  0.47209  1.0000
  H   H80       1.0  0.11771  0.67385  0.46842  1.0000
  H   H81       1.0  0.12085  0.53552  0.46657  1.0000
  H   H82       1.0  0.16382  0.52808  0.46756  1.0000
  H   H83       1.0  0.95178  0.44856  0.46843  1.0000
  H   H84       1.0  0.90809  0.39834  0.47209  1.0000
  H   H85       1.0  0.90555  0.59430  0.46756  1.0000
  H   H86       1.0  0.94868  0.58711  0.46659  1.0000
  C   C141      1.0  0.50480  0.43690  0.40587  1.0000
  C   C142      1.0  0.50084  0.40733  0.40620  1.0000
  C   C143      1.0  0.65773  0.59156  0.40823  1.0000
  C   C144      1.0  0.68715  0.59520  0.41043  1.0000
  C   C145      1.0  0.56759  0.71290  0.40622  1.0000
  C   C146      1.0  0.56348  0.68329  0.40589  1.0000
  C   C147      1.0  0.41065  0.52875  0.40831  1.0000
  C   C148      1.0  0.38127  0.52523  0.41050  1.0000
  H   H87       1.0  0.37145  0.52416  0.47163  1.0000
  H   H88       1.0  0.42158  0.53048  0.46774  1.0000
  H   H89       1.0  0.55984  0.67196  0.46565  1.0000
  H   H90       1.0  0.56727  0.72237  0.46663  1.0000
  H   H91       1.0  0.64675  0.58986  0.46765  1.0000
  H   H92       1.0  0.69697  0.59640  0.47157  1.0000
  H   H93       1.0  0.50106  0.39789  0.46663  1.0000
  H   H94       1.0  0.50830  0.44823  0.46565  1.0000
  C   C149      1.0  0.65843  0.15447  0.40581  1.0000
  C   C150      1.0  0.68799  0.18005  0.40632  1.0000
  C   C151      1.0  0.50383  0.15278  0.40769  1.0000
  C   C152      1.0  0.50015  0.17854  0.40981  1.0000
  C   C153      1.0  0.38252  0.94130  0.40636  1.0000
  C   C154      1.0  0.41214  0.96679  0.40585  1.0000
  C   C155      1.0  0.56662  0.96847  0.40768  1.0000
  C   C156      1.0  0.57011  0.94259  0.40981  1.0000
  H   H95       1.0  0.57121  0.93391  0.47093  1.0000
  H   H96       1.0  0.56489  0.97772  0.46712  1.0000
  H   H97       1.0  0.42350  0.97457  0.46555  1.0000
  H   H98       1.0  0.37310  0.93159  0.46681  1.0000
  H   H99       1.0  0.50548  0.14355  0.46714  1.0000
  H   H100      1.0  0.49893  0.18723  0.47092  1.0000
  H   H101      1.0  0.69739  0.18977  0.46680  1.0000
  H   H102      1.0  0.64707  0.14666  0.46554  1.0000
  C   C157      1.0  0.23725  0.52192  0.35506  1.0000
  C   C158      1.0  0.25283  0.51471  0.42132  1.0000
  C   C159      1.0  0.27956  0.51342  0.39932  1.0000
  N   N25       1.0  0.29311  0.50631  0.46670  1.0000
  C   C160      1.0  0.28302  0.50048  0.55303  1.0000
  C   C161      1.0  0.25660  0.50174  0.57407  1.0000
  N   N26       1.0  0.24274  0.50872  0.50801  1.0000
  H   H103      1.0  0.24781  0.49758  0.63773  1.0000
  C   C162      1.0  0.29949  0.49330  0.62147  1.0000
  H   H104      1.0  0.31940  0.49354  0.59238  1.0000
  H   H105      1.0  0.28450  0.47074  0.64944  1.0000
  C   C163      1.0  0.21205  0.52494  0.37728  1.0000
  H   H106      1.0  0.21024  0.53046  0.44018  1.0000
  C   C164      1.0  0.57344  0.80186  0.35418  1.0000
  C   C165      1.0  0.58066  0.82471  0.42046  1.0000
  C   C166      1.0  0.58195  0.85271  0.39848  1.0000
  N   N27       1.0  0.58906  0.87342  0.46587  1.0000
  C   C167      1.0  0.59489  0.86924  0.55219  1.0000
  C   C168      1.0  0.59364  0.84159  0.57321  1.0000
  N   N28       1.0  0.58665  0.82069  0.50713  1.0000
  H   H107      1.0  0.59779  0.83701  0.63686  1.0000
  C   C169      1.0  0.60207  0.89296  0.62064  1.0000
  H   H108      1.0  0.60183  0.91260  0.59158  1.0000
  H   H109      1.0  0.62464  0.90056  0.64862  1.0000
  C   C170      1.0  0.57042  0.77365  0.37638  1.0000
  H   H110      1.0  0.56492  0.76638  0.43929  1.0000
  C   C171      1.0  0.29355  0.85812  0.35477  1.0000
  C   C172      1.0  0.27074  0.84257  0.42118  1.0000
  C   C173      1.0  0.24272  0.81584  0.39935  1.0000
  N   N29       1.0  0.22204  0.80233  0.46685  1.0000
  C   C174      1.0  0.22629  0.81245  0.55315  1.0000
  C   C175      1.0  0.25396  0.83887  0.57402  1.0000
  N   N30       1.0  0.27482  0.85270  0.50783  1.0000
  H   H111      1.0  0.25858  0.84769  0.63766  1.0000
  C   C176      1.0  0.20261  0.79601  0.62173  1.0000
  H   H112      1.0  0.18294  0.77610  0.59277  1.0000
  H   H113      1.0  0.19503  0.81102  0.64975  1.0000
  C   C177      1.0  0.32178  0.88333  0.37682  1.0000
  H   H114      1.0  0.32910  0.88513  0.43965  1.0000
  C   C178      1.0  0.83176  0.59960  0.35505  1.0000
  C   C179      1.0  0.81601  0.60670  0.42130  1.0000
  C   C180      1.0  0.78916  0.60773  0.39929  1.0000
  N   N31       1.0  0.77545  0.61474  0.46665  1.0000
  C   C181      1.0  0.78549  0.62072  0.55296  1.0000
  C   C182      1.0  0.81203  0.61972  0.57401  1.0000
  N   N32       1.0  0.82604  0.61283  0.50797  1.0000
  H   H115      1.0  0.82078  0.62400  0.63766  1.0000
  C   C183      1.0  0.76884  0.62778  0.62137  1.0000
  H   H116      1.0  0.74886  0.62734  0.59228  1.0000
  H   H117      1.0  0.78368  0.65041  0.64930  1.0000
  C   C184      1.0  0.85709  0.59683  0.37728  1.0000
  H   H118      1.0  0.85892  0.59141  0.44020  1.0000
  C   C185      1.0  0.49576  0.31868  0.35416  1.0000
  C   C186      1.0  0.48866  0.29590  0.42042  1.0000
  C   C187      1.0  0.48763  0.26801  0.39844  1.0000
  N   N33       1.0  0.48061  0.24735  0.46581  1.0000
  C   C188      1.0  0.47463  0.25151  0.55212  1.0000
  C   C189      1.0  0.47562  0.27905  0.57314  1.0000
  N   N34       1.0  0.48252  0.29989  0.50708  1.0000
  H   H119      1.0  0.47134  0.28361  0.63678  1.0000
  C   C190      1.0  0.46756  0.22786  0.62054  1.0000
  H   H120      1.0  0.46801  0.20830  0.59148  1.0000
  H   H121      1.0  0.44494  0.22011  0.64846  1.0000
  C   C191      1.0  0.49854  0.34681  0.37637  1.0000
  H   H122      1.0  0.50399  0.35414  0.43926  1.0000
  C   C192      1.0  0.77668  0.26360  0.35477  1.0000
  C   C193      1.0  0.79943  0.27933  0.42114  1.0000
  C   C194      1.0  0.82733  0.30618  0.39930  1.0000
  N   N35       1.0  0.84795  0.31987  0.46677  1.0000
  C   C195      1.0  0.84375  0.30980  0.55305  1.0000
  C   C196      1.0  0.81619  0.28325  0.57394  1.0000
  N   N36       1.0  0.79539  0.26926  0.50778  1.0000
  H   H123      1.0  0.81161  0.27447  0.63756  1.0000
  C   C197      1.0  0.86736  0.32642  0.62159  1.0000
  H   H124      1.0  0.88694  0.34641  0.59262  1.0000
  H   H125      1.0  0.87510  0.31157  0.64955  1.0000
  C   C198      1.0  0.74855  0.23826  0.37684  1.0000
  H   H126      1.0  0.74122  0.23638  0.43975  1.0000
