data_image0
_chemical_formula_structural       CNCHCNCHNC2HNC2HCNCHCNCHNC2HNC2HCNCHCNCHCNCHCNCHNC2HNC2HCNCHCNCHNC2HNC2HCNCHCNCHNC2HNC2HCNCHCNCHC6H3C6H3C6H3C6H3C6H3C6H3C6H3C6H3C6H3C6H3C6H3C6H3C6H3C6H3C6H3C6H3NC2HNC2HCNCHCNCHNC2HNC2HCNCHCNCHNC2HNC2HNC2HNC2HCNCHCNCHNC2HNC2HCNCHCNCHNC2HNC2HCNCHCNCHNC2HNC2H
_chemical_formula_sum              "C192 N48 H96"
_cell_length_a       43.9038
_cell_length_b       34.4272
_cell_length_c       14.7437
_cell_angle_alpha    90
_cell_angle_beta     90
_cell_angle_gamma    90

_space_group_name_H-M_alt    "P 1"
_space_group_IT_number       1

loop_
  _space_group_symop_operation_xyz
  'x, y, z'

loop_
  _atom_site_type_symbol
  _atom_site_label
  _atom_site_symmetry_multiplicity
  _atom_site_fract_x
  _atom_site_fract_y
  _atom_site_fract_z
  _atom_site_occupancy
  C   C1        1.0  0.00870  0.02769  0.26937  1.0000
  N   N1        1.0  0.00870  0.98812  0.27152  1.0000
  C   C2        1.0  0.00869  0.96774  0.35063  1.0000
  H   H1        1.0  0.00870  0.04137  0.20783  1.0000
  C   C3        1.0  0.50869  0.52769  0.26937  1.0000
  N   N2        1.0  0.50869  0.48812  0.27152  1.0000
  C   C4        1.0  0.50869  0.46774  0.35064  1.0000
  H   H2        1.0  0.50869  0.54137  0.20784  1.0000
  N   N3        1.0  0.10389  0.21001  0.27174  1.0000
  C   C5        1.0  0.07869  0.18696  0.26949  1.0000
  C   C6        1.0  0.06478  0.17436  0.35077  1.0000
  H   H3        1.0  0.06941  0.18005  0.20799  1.0000
  N   N4        1.0  0.91344  0.80750  0.27164  1.0000
  C   C7        1.0  0.93864  0.83057  0.26944  1.0000
  C   C8        1.0  0.95256  0.84311  0.35074  1.0000
  H   H4        1.0  0.94790  0.83754  0.20794  1.0000
  C   C9        1.0  0.93862  0.18686  0.26935  1.0000
  N   N5        1.0  0.91341  0.20990  0.27154  1.0000
  C   C10       1.0  0.90004  0.22107  0.35064  1.0000
  H   H5        1.0  0.94783  0.17981  0.20785  1.0000
  C   C11       1.0  0.07873  0.83057  0.26933  1.0000
  N   N6        1.0  0.10394  0.80751  0.27152  1.0000
  C   C12       1.0  0.11729  0.79632  0.35063  1.0000
  H   H6        1.0  0.06953  0.83763  0.20782  1.0000
  N   N7        1.0  0.60387  0.71005  0.27171  1.0000
  C   C13       1.0  0.57869  0.68697  0.26948  1.0000
  C   C14       1.0  0.56479  0.67436  0.35078  1.0000
  H   H7        1.0  0.56942  0.68003  0.20798  1.0000
  N   N8        1.0  0.41351  0.30739  0.27170  1.0000
  C   C15       1.0  0.43870  0.33047  0.26945  1.0000
  C   C16       1.0  0.45261  0.34306  0.35074  1.0000
  H   H8        1.0  0.44796  0.33742  0.20794  1.0000
  C   C17       1.0  0.43864  0.68688  0.26933  1.0000
  N   N9        1.0  0.41344  0.70993  0.27154  1.0000
  C   C18       1.0  0.40007  0.72114  0.35062  1.0000
  H   H9        1.0  0.44784  0.67981  0.20782  1.0000
  C   C19       1.0  0.57874  0.33053  0.26934  1.0000
  N   N10       1.0  0.60393  0.30746  0.27157  1.0000
  C   C20       1.0  0.61730  0.29629  0.35067  1.0000
  H   H10       1.0  0.56952  0.33757  0.20782  1.0000
  C   C21       1.0  0.37949  0.10184  0.26908  1.0000
  N   N11       1.0  0.37266  0.14027  0.27115  1.0000
  C   C22       1.0  0.36927  0.15964  0.35072  1.0000
  H   H11       1.0  0.38331  0.08890  0.20768  1.0000
  C   C23       1.0  0.63787  0.91556  0.26886  1.0000
  N   N12       1.0  0.64473  0.87714  0.27102  1.0000
  C   C24       1.0  0.64809  0.85779  0.35063  1.0000
  H   H12       1.0  0.63407  0.92849  0.20746  1.0000
  N   N13       1.0  0.64474  0.14020  0.27121  1.0000
  C   C25       1.0  0.63793  0.10177  0.26918  1.0000
  C   C26       1.0  0.63442  0.08081  0.35085  1.0000
  H   H13       1.0  0.63411  0.08882  0.20782  1.0000
  N   N14       1.0  0.37256  0.87719  0.27123  1.0000
  C   C27       1.0  0.37939  0.91562  0.26915  1.0000
  C   C28       1.0  0.38293  0.93654  0.35083  1.0000
  H   H14       1.0  0.38321  0.92857  0.20778  1.0000
  C   C29       1.0  0.87950  0.60187  0.26891  1.0000
  N   N15       1.0  0.87271  0.64030  0.27106  1.0000
  C   C30       1.0  0.86941  0.65968  0.35066  1.0000
  H   H15       1.0  0.88328  0.58892  0.20751  1.0000
  C   C31       1.0  0.13784  0.41556  0.26883  1.0000
  N   N16       1.0  0.14466  0.37713  0.27099  1.0000
  C   C32       1.0  0.14797  0.35776  0.35060  1.0000
  H   H16       1.0  0.13406  0.42849  0.20742  1.0000
  N   N17       1.0  0.14465  0.64021  0.27127  1.0000
  C   C33       1.0  0.13786  0.60177  0.26924  1.0000
  C   C34       1.0  0.13438  0.58083  0.35093  1.0000
  H   H17       1.0  0.13404  0.58882  0.20787  1.0000
  N   N18       1.0  0.87262  0.37719  0.27119  1.0000
  C   C35       1.0  0.87938  0.41563  0.26912  1.0000
  C   C36       1.0  0.88289  0.43661  0.35073  1.0000
  H   H18       1.0  0.88317  0.42858  0.20773  1.0000
  C   C37       1.0  0.49394  0.00871  0.26858  1.0000
  N   N19       1.0  0.52476  0.00870  0.27070  1.0000
  C   C38       1.0  0.54007  0.00872  0.35060  1.0000
  H   H19       1.0  0.48308  0.00869  0.20723  1.0000
  C   C39       1.0  0.99393  0.50866  0.26865  1.0000
  N   N20       1.0  0.02475  0.50866  0.27073  1.0000
  C   C40       1.0  0.04007  0.50869  0.35062  1.0000
  H   H20       1.0  0.98306  0.50864  0.20731  1.0000
  N   N21       1.0  0.27479  0.25775  0.27160  1.0000
  C   C41       1.0  0.24386  0.25952  0.26946  1.0000
  C   C42       1.0  0.22690  0.25968  0.35090  1.0000
  H   H21       1.0  0.23315  0.26084  0.20796  1.0000
  N   N22       1.0  0.74257  0.75974  0.27167  1.0000
  C   C43       1.0  0.77350  0.75796  0.26948  1.0000
  C   C44       1.0  0.79046  0.75772  0.35090  1.0000
  H   H22       1.0  0.78421  0.75667  0.20796  1.0000
  C   C45       1.0  0.77349  0.25947  0.26917  1.0000
  N   N23       1.0  0.74256  0.25766  0.27136  1.0000
  C   C46       1.0  0.72672  0.25778  0.35064  1.0000
  H   H23       1.0  0.78419  0.26078  0.20766  1.0000
  C   C47       1.0  0.24385  0.75786  0.26913  1.0000
  N   N24       1.0  0.27478  0.75964  0.27127  1.0000
  C   C48       1.0  0.29064  0.75956  0.35049  1.0000
  H   H24       1.0  0.23315  0.75652  0.20763  1.0000
  C   C49       1.0  0.98053  0.15318  0.35064  1.0000
  C   C50       1.0  0.00867  0.17328  0.35070  1.0000
  C   C51       1.0  0.03682  0.15319  0.35072  1.0000
  C   C52       1.0  0.03644  0.11204  0.35070  1.0000
  C   C53       1.0  0.00868  0.09099  0.35064  1.0000
  C   C54       1.0  0.98091  0.11203  0.35061  1.0000
  H   H25       1.0  0.05667  0.09720  0.35072  1.0000
  H   H26       1.0  0.96069  0.09718  0.35058  1.0000
  H   H27       1.0  0.00866  0.20306  0.35073  1.0000
  C   C55       1.0  0.03683  0.86425  0.35064  1.0000
  C   C56       1.0  0.00867  0.84416  0.35070  1.0000
  C   C57       1.0  0.98053  0.86427  0.35072  1.0000
  C   C58       1.0  0.98092  0.90542  0.35069  1.0000
  C   C59       1.0  0.00869  0.92643  0.35064  1.0000
  C   C60       1.0  0.03645  0.90541  0.35060  1.0000
  H   H28       1.0  0.96069  0.92027  0.35071  1.0000
  H   H29       1.0  0.05668  0.92025  0.35056  1.0000
  H   H30       1.0  0.00867  0.81439  0.35072  1.0000
  C   C61       1.0  0.48054  0.65319  0.35064  1.0000
  C   C62       1.0  0.50869  0.67329  0.35070  1.0000
  C   C63       1.0  0.53683  0.65319  0.35074  1.0000
  C   C64       1.0  0.53645  0.61204  0.35072  1.0000
  C   C65       1.0  0.50868  0.59100  0.35065  1.0000
  C   C66       1.0  0.48092  0.61204  0.35060  1.0000
  H   H31       1.0  0.55668  0.59720  0.35074  1.0000
  H   H32       1.0  0.46069  0.59720  0.35055  1.0000
  H   H33       1.0  0.50869  0.70307  0.35072  1.0000
  C   C67       1.0  0.53685  0.36426  0.35062  1.0000
  C   C68       1.0  0.50871  0.34416  0.35067  1.0000
  C   C69       1.0  0.48056  0.36425  0.35070  1.0000
  C   C70       1.0  0.48093  0.40540  0.35069  1.0000
  C   C71       1.0  0.50869  0.42642  0.35064  1.0000
  C   C72       1.0  0.53646  0.40542  0.35060  1.0000
  H   H34       1.0  0.46070  0.42024  0.35072  1.0000
  H   H35       1.0  0.55669  0.42026  0.35057  1.0000
  H   H36       1.0  0.50871  0.31438  0.35069  1.0000
  C   C73       1.0  0.44560  0.00873  0.35057  1.0000
  C   C74       1.0  0.42961  0.97336  0.35066  1.0000
  C   C75       1.0  0.39748  0.97306  0.35073  1.0000
  C   C76       1.0  0.38137  0.00868  0.35073  1.0000
  C   C77       1.0  0.39746  0.04432  0.35062  1.0000
  C   C78       1.0  0.42958  0.04407  0.35055  1.0000
  H   H37       1.0  0.35805  0.00866  0.35080  1.0000
  H   H38       1.0  0.44145  0.06976  0.35053  1.0000
  H   H39       1.0  0.44150  0.94769  0.35069  1.0000
  C   C79       1.0  0.57173  0.00871  0.35062  1.0000
  C   C80       1.0  0.58770  0.04406  0.35076  1.0000
  C   C81       1.0  0.61983  0.04432  0.35076  1.0000
  C   C82       1.0  0.63592  0.00868  0.35066  1.0000
  C   C83       1.0  0.61982  0.97306  0.35055  1.0000
  C   C84       1.0  0.58768  0.97334  0.35050  1.0000
  H   H40       1.0  0.65924  0.00868  0.35068  1.0000
  H   H41       1.0  0.57580  0.94766  0.35041  1.0000
  H   H42       1.0  0.57583  0.06975  0.35083  1.0000
  C   C85       1.0  0.94561  0.50870  0.35070  1.0000
  C   C86       1.0  0.92960  0.47336  0.35077  1.0000
  C   C87       1.0  0.89747  0.47310  0.35077  1.0000
  C   C88       1.0  0.88139  0.50874  0.35068  1.0000
  C   C89       1.0  0.89750  0.54435  0.35063  1.0000
  C   C90       1.0  0.92963  0.54406  0.35062  1.0000
  H   H43       1.0  0.85806  0.50875  0.35064  1.0000
  H   H44       1.0  0.94152  0.56973  0.35056  1.0000
  H   H45       1.0  0.94147  0.44766  0.35080  1.0000
  C   C91       1.0  0.07172  0.50869  0.35060  1.0000
  C   C92       1.0  0.08768  0.54405  0.35078  1.0000
  C   C93       1.0  0.11981  0.54432  0.35078  1.0000
  C   C94       1.0  0.13591  0.50869  0.35067  1.0000
  C   C95       1.0  0.11981  0.47307  0.35052  1.0000
  C   C96       1.0  0.08768  0.47333  0.35046  1.0000
  H   H46       1.0  0.15924  0.50870  0.35069  1.0000
  H   H47       1.0  0.07581  0.44765  0.35036  1.0000
  H   H48       1.0  0.07580  0.56973  0.35088  1.0000
  C   C97       1.0  0.15559  0.31820  0.35069  1.0000
  C   C98       1.0  0.13295  0.28908  0.35070  1.0000
  C   C99       1.0  0.14092  0.24925  0.35080  1.0000
  C   C100      1.0  0.17226  0.23904  0.35088  1.0000
  C   C101      1.0  0.19523  0.26806  0.35083  1.0000
  C   C102      1.0  0.18653  0.30751  0.35075  1.0000
  H   H49       1.0  0.17840  0.21035  0.35095  1.0000
  H   H50       1.0  0.20293  0.32876  0.35073  1.0000
  H   H51       1.0  0.11043  0.29702  0.35066  1.0000
  C   C103      1.0  0.86179  0.69924  0.35073  1.0000
  C   C104      1.0  0.88443  0.72837  0.35071  1.0000
  C   C105      1.0  0.87644  0.76819  0.35076  1.0000
  C   C106      1.0  0.84511  0.77840  0.35082  1.0000
  C   C107      1.0  0.82214  0.74937  0.35083  1.0000
  C   C108      1.0  0.83085  0.70992  0.35079  1.0000
  H   H52       1.0  0.83896  0.80708  0.35085  1.0000
  H   H53       1.0  0.81445  0.68867  0.35080  1.0000
  H   H54       1.0  0.90694  0.72043  0.35066  1.0000
  C   C109      1.0  0.86176  0.31821  0.35073  1.0000
  C   C110      1.0  0.88441  0.28909  0.35075  1.0000
  C   C111      1.0  0.87643  0.24926  0.35067  1.0000
  C   C112      1.0  0.84510  0.23904  0.35060  1.0000
  C   C113      1.0  0.82212  0.26806  0.35062  1.0000
  C   C114      1.0  0.83083  0.30751  0.35066  1.0000
  H   H55       1.0  0.83896  0.21035  0.35055  1.0000
  H   H56       1.0  0.81442  0.32876  0.35066  1.0000
  H   H57       1.0  0.90692  0.29703  0.35079  1.0000
  C   C115      1.0  0.15558  0.69919  0.35076  1.0000
  C   C116      1.0  0.13293  0.72830  0.35075  1.0000
  C   C117      1.0  0.14090  0.76813  0.35066  1.0000
  C   C118      1.0  0.17223  0.77836  0.35057  1.0000
  C   C119      1.0  0.19521  0.74935  0.35061  1.0000
  C   C120      1.0  0.18651  0.70990  0.35069  1.0000
  H   H58       1.0  0.17836  0.80705  0.35050  1.0000
  H   H59       1.0  0.20292  0.68866  0.35070  1.0000
  H   H60       1.0  0.11042  0.72035  0.35079  1.0000
  C   C121      1.0  0.65568  0.81821  0.35071  1.0000
  C   C122      1.0  0.63299  0.78913  0.35072  1.0000
  C   C123      1.0  0.64091  0.74929  0.35081  1.0000
  C   C124      1.0  0.67223  0.73901  0.35088  1.0000
  C   C125      1.0  0.69522  0.76799  0.35084  1.0000
  C   C126      1.0  0.68660  0.80745  0.35076  1.0000
  H   H61       1.0  0.67833  0.71030  0.35095  1.0000
  H   H62       1.0  0.70304  0.82866  0.35074  1.0000
  H   H63       1.0  0.61049  0.79712  0.35068  1.0000
  C   C127      1.0  0.36169  0.19922  0.35074  1.0000
  C   C128      1.0  0.38439  0.22829  0.35073  1.0000
  C   C129      1.0  0.37647  0.26814  0.35078  1.0000
  C   C130      1.0  0.34515  0.27843  0.35081  1.0000
  C   C131      1.0  0.32216  0.24945  0.35081  1.0000
  C   C132      1.0  0.33077  0.20999  0.35078  1.0000
  H   H64       1.0  0.33905  0.30713  0.35083  1.0000
  H   H65       1.0  0.31433  0.18878  0.35077  1.0000
  H   H66       1.0  0.40689  0.22030  0.35071  1.0000
  C   C133      1.0  0.36166  0.81820  0.35076  1.0000
  C   C134      1.0  0.38435  0.78913  0.35076  1.0000
  C   C135      1.0  0.37644  0.74929  0.35065  1.0000
  C   C136      1.0  0.34513  0.73899  0.35055  1.0000
  C   C137      1.0  0.32213  0.76796  0.35060  1.0000
  C   C138      1.0  0.33074  0.80743  0.35069  1.0000
  H   H67       1.0  0.33903  0.71029  0.35047  1.0000
  H   H68       1.0  0.31429  0.82864  0.35069  1.0000
  H   H69       1.0  0.40685  0.79713  0.35081  1.0000
  C   C139      1.0  0.65567  0.19920  0.35068  1.0000
  C   C140      1.0  0.63298  0.22828  0.35069  1.0000
  C   C141      1.0  0.64092  0.26812  0.35063  1.0000
  C   C142      1.0  0.67224  0.27839  0.35059  1.0000
  C   C143      1.0  0.69522  0.24940  0.35060  1.0000
  C   C144      1.0  0.68660  0.20994  0.35064  1.0000
  H   H70       1.0  0.67836  0.30709  0.35058  1.0000
  H   H71       1.0  0.70303  0.18871  0.35066  1.0000
  H   H72       1.0  0.61048  0.22031  0.35073  1.0000
  N   N25       1.0  0.00868  0.98812  0.42975  1.0000
  C   C145      1.0  0.00868  0.02769  0.43190  1.0000
  C   C146      1.0  0.00869  0.04947  0.35064  1.0000
  H   H73       1.0  0.00867  0.04136  0.49344  1.0000
  N   N26       1.0  0.50868  0.48811  0.42975  1.0000
  C   C147      1.0  0.50868  0.52769  0.43190  1.0000
  C   C148      1.0  0.50868  0.54948  0.35064  1.0000
  H   H74       1.0  0.50868  0.54136  0.49344  1.0000
  C   C149      1.0  0.07871  0.18687  0.43209  1.0000
  N   N27       1.0  0.10393  0.20990  0.42992  1.0000
  C   C150      1.0  0.11732  0.22106  0.35085  1.0000
  H   H75       1.0  0.06948  0.17983  0.49358  1.0000
  C   C151      1.0  0.93866  0.83052  0.43204  1.0000
  N   N28       1.0  0.91345  0.80748  0.42984  1.0000
  C   C152      1.0  0.90005  0.79638  0.35073  1.0000
  H   H76       1.0  0.94790  0.83752  0.49354  1.0000
  N   N29       1.0  0.91348  0.21003  0.42974  1.0000
  C   C153      1.0  0.93868  0.18697  0.43195  1.0000
  C   C154      1.0  0.95255  0.17433  0.35066  1.0000
  H   H77       1.0  0.94796  0.18005  0.49345  1.0000
  N   N30       1.0  0.10385  0.80736  0.42972  1.0000
  C   C155      1.0  0.07866  0.83044  0.43193  1.0000
  C   C156      1.0  0.06478  0.84308  0.35063  1.0000
  H   H78       1.0  0.06937  0.83735  0.49342  1.0000
  C   C157      1.0  0.57871  0.68690  0.43209  1.0000
  N   N31       1.0  0.60391  0.70997  0.42992  1.0000
  C   C158      1.0  0.61728  0.72114  0.35083  1.0000
  H   H79       1.0  0.56948  0.67986  0.49358  1.0000
  C   C159      1.0  0.43869  0.33052  0.43205  1.0000
  N   N32       1.0  0.41349  0.30746  0.42986  1.0000
  C   C160      1.0  0.40010  0.29629  0.35079  1.0000
  H   H80       1.0  0.44792  0.33755  0.49354  1.0000
  N   N33       1.0  0.41352  0.71009  0.42970  1.0000
  C   C161      1.0  0.43872  0.68702  0.43192  1.0000
  C   C162      1.0  0.45258  0.67437  0.35062  1.0000
  H   H81       1.0  0.44800  0.68011  0.49342  1.0000
  N   N34       1.0  0.60387  0.30738  0.42973  1.0000
  C   C163      1.0  0.57869  0.33047  0.43193  1.0000
  C   C164      1.0  0.56481  0.34309  0.35062  1.0000
  H   H82       1.0  0.56941  0.33741  0.49342  1.0000
  N   N35       1.0  0.37255  0.14022  0.43026  1.0000
  C   C165      1.0  0.37934  0.10178  0.43231  1.0000
  C   C166      1.0  0.38286  0.08081  0.35068  1.0000
  H   H83       1.0  0.38314  0.08882  0.49369  1.0000
  N   N36       1.0  0.64474  0.87721  0.43015  1.0000
  C   C167      1.0  0.63790  0.91564  0.43215  1.0000
  C   C168      1.0  0.63439  0.93656  0.35044  1.0000
  H   H84       1.0  0.63407  0.92859  0.49350  1.0000
  C   C169      1.0  0.63785  0.10183  0.43243  1.0000
  N   N37       1.0  0.64469  0.14025  0.43032  1.0000
  C   C170      1.0  0.64807  0.15962  0.35074  1.0000
  H   H85       1.0  0.63404  0.08890  0.49382  1.0000
  C   C171      1.0  0.37946  0.91559  0.43247  1.0000
  N   N38       1.0  0.37260  0.87717  0.43037  1.0000
  C   C172      1.0  0.36923  0.85779  0.35079  1.0000
  H   H86       1.0  0.38326  0.92854  0.49386  1.0000
  N   N39       1.0  0.87271  0.64025  0.43020  1.0000
  C   C173      1.0  0.87948  0.60180  0.43220  1.0000
  C   C174      1.0  0.88294  0.58087  0.35051  1.0000
  H   H87       1.0  0.88330  0.58884  0.49356  1.0000
  N   N40       1.0  0.14466  0.37720  0.43013  1.0000
  C   C175      1.0  0.13787  0.41563  0.43212  1.0000
  C   C176      1.0  0.13439  0.43656  0.35041  1.0000
  H   H88       1.0  0.13404  0.42860  0.49348  1.0000
  C   C177      1.0  0.13784  0.60182  0.43253  1.0000
  N   N41       1.0  0.14465  0.64025  0.43041  1.0000
  C   C178      1.0  0.14797  0.65962  0.35081  1.0000
  H   H89       1.0  0.13406  0.58887  0.49392  1.0000
  C   C179      1.0  0.87953  0.41559  0.43236  1.0000
  N   N42       1.0  0.87273  0.37716  0.43030  1.0000
  C   C180      1.0  0.86937  0.35777  0.35074  1.0000
  H   H90       1.0  0.88333  0.42854  0.49374  1.0000
  N   N43       1.0  0.52475  0.00875  0.43049  1.0000
  C   C181      1.0  0.49394  0.00876  0.43259  1.0000
  C   C182      1.0  0.47744  0.00874  0.35058  1.0000
  H   H91       1.0  0.48307  0.00878  0.49394  1.0000
  N   N44       1.0  0.02476  0.50871  0.43053  1.0000
  C   C183      1.0  0.99395  0.50871  0.43266  1.0000
  C   C184      1.0  0.97745  0.50868  0.35067  1.0000
  H   H92       1.0  0.98309  0.50873  0.49403  1.0000
  C   C185      1.0  0.24389  0.25950  0.43227  1.0000
  N   N45       1.0  0.27482  0.25773  0.43005  1.0000
  C   C186      1.0  0.29067  0.25785  0.35079  1.0000
  H   H93       1.0  0.23319  0.26081  0.49379  1.0000
  C   C187      1.0  0.77350  0.75790  0.43231  1.0000
  N   N46       1.0  0.74257  0.75969  0.43012  1.0000
  C   C188      1.0  0.72670  0.75959  0.35090  1.0000
  H   H94       1.0  0.78421  0.75657  0.49382  1.0000
  N   N47       1.0  0.74257  0.25767  0.42988  1.0000
  C   C189      1.0  0.77350  0.25948  0.43202  1.0000
  C   C190      1.0  0.79045  0.25969  0.35058  1.0000
  H   H95       1.0  0.78421  0.26080  0.49352  1.0000
  N   N48       1.0  0.27479  0.75970  0.42974  1.0000
  C   C191      1.0  0.24386  0.75792  0.43192  1.0000
  C   C192      1.0  0.22687  0.75776  0.35053  1.0000
  H   H96       1.0  0.23316  0.75662  0.49344  1.0000
