data_image0
_chemical_formula_structural       C2NC2O2CH3C2NC2O2CH3C2NC2O2CH3C2NC2O2CH3C2NC2O2CH3C2NC2O2CH3NCHNCHNCHNCHNCHNCHC2NC2O2CH3C2NC2O2CH3C2NC2O2CH3C2NC2O2CH3C2NC2O2CH3C2NC2O2CH3C6H3C6H3C6H3C6H3C6H3C6H3C6H3C6H3C6H3C6H3C6H3C6H3NCHNCHNCHNCHNCHNCHC2NC2O2CH3C2NC2O2CH3C2NC2O2CH3C2NC2O2CH3C2NC2O2CH3C2NC2O2CH3NCHNCHNCHNCHNCHNCH
_chemical_formula_sum              "C180 N36 O36 H108"
_cell_length_a       39.5549
_cell_length_b       39.5549
_cell_length_c       14.8467
_cell_angle_alpha    90
_cell_angle_beta     90
_cell_angle_gamma    120

_space_group_name_H-M_alt    "P 1"
_space_group_IT_number       1

loop_
  _space_group_symop_operation_xyz
  'x, y, z'

loop_
  _atom_site_type_symbol
  _atom_site_label
  _atom_site_symmetry_multiplicity
  _atom_site_fract_x
  _atom_site_fract_y
  _atom_site_fract_z
  _atom_site_occupancy
  C   C1        1.0  0.19792  0.46029  0.33951  1.0000
  C   C2        1.0  0.27156  0.46430  0.34410  1.0000
  N   N1        1.0  0.24157  0.43805  0.29180  1.0000
  C   C3        1.0  0.20534  0.43441  0.28759  1.0000
  C   C4        1.0  0.17919  0.40850  0.22623  1.0000
  O   O1        1.0  0.17003  0.37430  0.23665  1.0000
  O   O2        1.0  0.18628  0.42014  0.14035  1.0000
  C   C5        1.0  0.15504  0.42356  0.10012  1.0000
  H   H1        1.0  0.16271  0.43224  0.03005  1.0000
  H   H2        1.0  0.15107  0.44596  0.13354  1.0000
  H   H3        1.0  0.12753  0.39578  0.10108  1.0000
  C   C6        1.0  0.57206  0.75965  0.33875  1.0000
  C   C7        1.0  0.56800  0.82924  0.34374  1.0000
  N   N2        1.0  0.59429  0.82558  0.29142  1.0000
  C   C8        1.0  0.59798  0.79302  0.28709  1.0000
  C   C9        1.0  0.62389  0.79285  0.22560  1.0000
  O   O3        1.0  0.65808  0.81794  0.23595  1.0000
  O   O4        1.0  0.61220  0.78830  0.13977  1.0000
  C   C10       1.0  0.60894  0.75374  0.09935  1.0000
  H   H4        1.0  0.60020  0.75271  0.02933  1.0000
  H   H5        1.0  0.58664  0.72729  0.13276  1.0000
  H   H6        1.0  0.63680  0.75416  0.10015  1.0000
  C   C11       1.0  0.27260  0.83423  0.33817  1.0000
  C   C12       1.0  0.20287  0.76089  0.34448  1.0000
  N   N3        1.0  0.20720  0.79014  0.28871  1.0000
  C   C13       1.0  0.23983  0.82620  0.28322  1.0000
  C   C14       1.0  0.23904  0.84995  0.21618  1.0000
  O   O5        1.0  0.22402  0.86928  0.23747  1.0000
  O   O6        1.0  0.27007  0.86789  0.16190  1.0000
  C   C15       1.0  0.26485  0.84773  0.07798  1.0000
  H   H7        1.0  0.29121  0.86438  0.03789  1.0000
  H   H8        1.0  0.24020  0.84560  0.03983  1.0000
  H   H9        1.0  0.26069  0.81853  0.08844  1.0000
  C   C16       1.0  0.83049  0.57600  0.33902  1.0000
  C   C17       1.0  0.75677  0.57182  0.34368  1.0000
  N   N4        1.0  0.78674  0.59814  0.29145  1.0000
  C   C18       1.0  0.82301  0.60189  0.28728  1.0000
  C   C19       1.0  0.84916  0.62784  0.22587  1.0000
  O   O7        1.0  0.85865  0.66197  0.23939  1.0000
  O   O8        1.0  0.84223  0.61700  0.13965  1.0000
  C   C20       1.0  0.87329  0.61333  0.09919  1.0000
  H   H10       1.0  0.86578  0.60524  0.02879  1.0000
  H   H11       1.0  0.87675  0.59043  0.13164  1.0000
  H   H12       1.0  0.90103  0.64088  0.10120  1.0000
  C   C21       1.0  0.45619  0.27638  0.34018  1.0000
  C   C22       1.0  0.46028  0.20679  0.34519  1.0000
  N   N5        1.0  0.43396  0.21043  0.29293  1.0000
  C   C23       1.0  0.43028  0.24300  0.28852  1.0000
  C   C24       1.0  0.40430  0.24313  0.22721  1.0000
  O   O9        1.0  0.37011  0.21811  0.23792  1.0000
  O   O10       1.0  0.41583  0.24749  0.14126  1.0000
  C   C25       1.0  0.41935  0.28216  0.10080  1.0000
  H   H13       1.0  0.42793  0.28302  0.03069  1.0000
  H   H14       1.0  0.44186  0.30854  0.13396  1.0000
  H   H15       1.0  0.39163  0.28201  0.10185  1.0000
  C   C26       1.0  0.75579  0.20178  0.33946  1.0000
  C   C27       1.0  0.82537  0.27545  0.34415  1.0000
  N   N6        1.0  0.82169  0.24548  0.29186  1.0000
  C   C28       1.0  0.78912  0.20923  0.28765  1.0000
  C   C29       1.0  0.78892  0.18313  0.22616  1.0000
  O   O11       1.0  0.81404  0.17406  0.23638  1.0000
  O   O12       1.0  0.78428  0.19023  0.14035  1.0000
  C   C30       1.0  0.74974  0.15885  0.10006  1.0000
  H   H16       1.0  0.74864  0.16654  0.03004  1.0000
  H   H17       1.0  0.72329  0.15463  0.13355  1.0000
  H   H18       1.0  0.75026  0.13147  0.10082  1.0000
  N   N7        1.0  0.16280  0.57316  0.29909  1.0000
  C   C31       1.0  0.16644  0.60922  0.29670  1.0000
  H   H19       1.0  0.18538  0.62946  0.25199  1.0000
  N   N8        1.0  0.45937  0.61163  0.29738  1.0000
  C   C32       1.0  0.42333  0.57919  0.29488  1.0000
  H   H20       1.0  0.40308  0.57791  0.25024  1.0000
  N   N9        1.0  0.42055  0.86960  0.29811  1.0000
  C   C33       1.0  0.45300  0.86603  0.29528  1.0000
  H   H21       1.0  0.45435  0.84730  0.25005  1.0000
  N   N10       1.0  0.86571  0.46324  0.29759  1.0000
  C   C34       1.0  0.86205  0.42717  0.29519  1.0000
  H   H22       1.0  0.84322  0.40699  0.25026  1.0000
  N   N11       1.0  0.56893  0.42436  0.29817  1.0000
  C   C35       1.0  0.60496  0.45679  0.29545  1.0000
  H   H23       1.0  0.62518  0.45803  0.25077  1.0000
  N   N12       1.0  0.60775  0.16648  0.29856  1.0000
  C   C36       1.0  0.57531  0.17008  0.29617  1.0000
  H   H24       1.0  0.57401  0.18905  0.25156  1.0000
  C   C37       1.0  0.97034  0.36206  0.32803  1.0000
  C   C38       1.0  0.05251  0.40252  0.33139  1.0000
  N   N13       1.0  0.03192  0.39506  0.25350  1.0000
  C   C39       1.0  0.99217  0.37432  0.24648  1.0000
  C   C40       1.0  0.97502  0.37043  0.16262  1.0000
  O   O13       1.0  0.99608  0.38820  0.09874  1.0000
  O   O14       1.0  0.94584  0.33458  0.14224  1.0000
  C   C41       1.0  0.91310  0.33415  0.09871  1.0000
  H   H25       1.0  0.89044  0.30379  0.08924  1.0000
  H   H26       1.0  0.92117  0.34805  0.03253  1.0000
  H   H27       1.0  0.90093  0.34849  0.13957  1.0000
  C   C42       1.0  0.67025  0.63023  0.32714  1.0000
  C   C43       1.0  0.63003  0.67220  0.33049  1.0000
  N   N14       1.0  0.63706  0.65860  0.25274  1.0000
  C   C44       1.0  0.65770  0.63950  0.24562  1.0000
  C   C45       1.0  0.66105  0.62574  0.16193  1.0000
  O   O15       1.0  0.64303  0.62885  0.09832  1.0000
  O   O16       1.0  0.69672  0.63211  0.14076  1.0000
  C   C46       1.0  0.69673  0.59947  0.09789  1.0000
  H   H28       1.0  0.72699  0.60697  0.08766  1.0000
  H   H29       1.0  0.68246  0.59332  0.03209  1.0000
  H   H30       1.0  0.68252  0.57320  0.13957  1.0000
  C   C47       1.0  0.40198  0.06179  0.32984  1.0000
  C   C48       1.0  0.35996  0.97958  0.33283  1.0000
  N   N15       1.0  0.37340  0.00023  0.25507  1.0000
  C   C49       1.0  0.39255  0.04000  0.24821  1.0000
  C   C50       1.0  0.40615  0.05730  0.16450  1.0000
  O   O17       1.0  0.40444  0.03630  0.10193  1.0000
  O   O18       1.0  0.39796  0.08536  0.14347  1.0000
  C   C51       1.0  0.42941  0.11860  0.09919  1.0000
  H   H31       1.0  0.42047  0.14032  0.08910  1.0000
  H   H32       1.0  0.43562  0.11068  0.03323  1.0000
  H   H33       1.0  0.45601  0.13188  0.13983  1.0000
  C   C52       1.0  0.05799  0.67402  0.32780  1.0000
  C   C53       1.0  0.97593  0.63386  0.33045  1.0000
  N   N16       1.0  0.99657  0.64075  0.25280  1.0000
  C   C54       1.0  0.03634  0.66133  0.24603  1.0000
  C   C55       1.0  0.05373  0.66489  0.16252  1.0000
  O   O19       1.0  0.03256  0.64608  0.09962  1.0000
  O   O20       1.0  0.08310  0.70040  0.14099  1.0000
  C   C56       1.0  0.11563  0.70015  0.09820  1.0000
  H   H34       1.0  0.13846  0.73035  0.08755  1.0000
  H   H35       1.0  0.10740  0.68571  0.03260  1.0000
  H   H36       1.0  0.12764  0.68597  0.14014  1.0000
  C   C57       1.0  0.35803  0.40578  0.32796  1.0000
  C   C58       1.0  0.39832  0.36396  0.33135  1.0000
  N   N17       1.0  0.39102  0.37718  0.25342  1.0000
  C   C59       1.0  0.37035  0.39627  0.24642  1.0000
  C   C60       1.0  0.36660  0.40967  0.16261  1.0000
  O   O21       1.0  0.38445  0.40645  0.09880  1.0000
  O   O22       1.0  0.33079  0.40306  0.14201  1.0000
  C   C61       1.0  0.33045  0.43544  0.09861  1.0000
  H   H37       1.0  0.30011  0.42777  0.08895  1.0000
  H   H38       1.0  0.34444  0.44134  0.03252  1.0000
  H   H39       1.0  0.34475  0.46190  0.13965  1.0000
  C   C62       1.0  0.62634  0.97421  0.32766  1.0000
  C   C63       1.0  0.66830  0.05636  0.33110  1.0000
  N   N18       1.0  0.65469  0.03575  0.25333  1.0000
  C   C64       1.0  0.63559  0.99600  0.24612  1.0000
  C   C65       1.0  0.62184  0.97892  0.16241  1.0000
  O   O23       1.0  0.62489  0.00006  0.09887  1.0000
  O   O24       1.0  0.62829  0.94969  0.14112  1.0000
  C   C66       1.0  0.59569  0.91702  0.09814  1.0000
  H   H40       1.0  0.60326  0.89431  0.08782  1.0000
  H   H41       1.0  0.58955  0.92517  0.03237  1.0000
  H   H42       1.0  0.56941  0.90489  0.13977  1.0000
  C   C67       1.0  0.13359  0.50589  0.34395  1.0000
  C   C68       1.0  0.09637  0.47229  0.33534  1.0000
  C   C69       1.0  0.09136  0.43440  0.33308  1.0000
  C   C70       1.0  0.12487  0.43027  0.33567  1.0000
  C   C71       1.0  0.16314  0.46336  0.33825  1.0000
  C   C72       1.0  0.16655  0.50087  0.34280  1.0000
  H   H43       1.0  0.12113  0.40276  0.33670  1.0000
  H   H44       1.0  0.19366  0.52525  0.34668  1.0000
  H   H45       1.0  0.07216  0.47539  0.33226  1.0000
  C   C73       1.0  0.52661  0.64973  0.34247  1.0000
  C   C74       1.0  0.56025  0.64619  0.33394  1.0000
  C   C75       1.0  0.59812  0.67910  0.33195  1.0000
  C   C76       1.0  0.60219  0.71672  0.33483  1.0000
  C   C77       1.0  0.56906  0.72183  0.33731  1.0000
  C   C78       1.0  0.53157  0.68769  0.34154  1.0000
  H   H46       1.0  0.62967  0.74052  0.33614  1.0000
  H   H47       1.0  0.50716  0.69037  0.34538  1.0000
  H   H48       1.0  0.55720  0.61890  0.33072  1.0000
  C   C79       1.0  0.38239  0.89855  0.34391  1.0000
  C   C80       1.0  0.38596  0.93578  0.33609  1.0000
  C   C81       1.0  0.35305  0.94074  0.33377  1.0000
  C   C82       1.0  0.31542  0.90718  0.33561  1.0000
  C   C83       1.0  0.31037  0.86897  0.33741  1.0000
  C   C84       1.0  0.34444  0.86554  0.34206  1.0000
  H   H49       1.0  0.29156  0.91076  0.33638  1.0000
  H   H50       1.0  0.34168  0.83841  0.34550  1.0000
  H   H51       1.0  0.41325  0.96002  0.33356  1.0000
  C   C85       1.0  0.89488  0.53048  0.34258  1.0000
  C   C86       1.0  0.93208  0.56408  0.33388  1.0000
  C   C87       1.0  0.93707  0.60197  0.33187  1.0000
  C   C88       1.0  0.90355  0.60608  0.33492  1.0000
  C   C89       1.0  0.86529  0.57298  0.33753  1.0000
  C   C90       1.0  0.86190  0.53547  0.34175  1.0000
  H   H52       1.0  0.90728  0.63358  0.33626  1.0000
  H   H53       1.0  0.83480  0.51108  0.34567  1.0000
  H   H54       1.0  0.95629  0.56100  0.33076  1.0000
  C   C91       1.0  0.50171  0.38632  0.34348  1.0000
  C   C92       1.0  0.46809  0.38989  0.33480  1.0000
  C   C93       1.0  0.43021  0.35699  0.33294  1.0000
  C   C94       1.0  0.42611  0.31936  0.33601  1.0000
  C   C95       1.0  0.45921  0.31421  0.33861  1.0000
  C   C96       1.0  0.49672  0.34834  0.34275  1.0000
  H   H55       1.0  0.39861  0.29558  0.33737  1.0000
  H   H56       1.0  0.52112  0.34564  0.34664  1.0000
  H   H57       1.0  0.47116  0.41718  0.33149  1.0000
  C   C97       1.0  0.64587  0.13733  0.34345  1.0000
  C   C98       1.0  0.64231  0.10014  0.33481  1.0000
  C   C99       1.0  0.67522  0.09518  0.33264  1.0000
  C   C100      1.0  0.71284  0.12872  0.33554  1.0000
  C   C101      1.0  0.71796  0.16697  0.33810  1.0000
  C   C102      1.0  0.68383  0.17033  0.34247  1.0000
  H   H58       1.0  0.73664  0.12503  0.33671  1.0000
  H   H59       1.0  0.68652  0.19742  0.34635  1.0000
  H   H60       1.0  0.61502  0.07592  0.33165  1.0000
  C   C103      1.0  0.50567  0.14233  0.34515  1.0000
  C   C104      1.0  0.47174  0.10514  0.34203  1.0000
  C   C105      1.0  0.43405  0.10058  0.33640  1.0000
  C   C106      1.0  0.43034  0.13440  0.33652  1.0000
  C   C107      1.0  0.46368  0.17238  0.34218  1.0000
  C   C108      1.0  0.50108  0.17553  0.34429  1.0000
  H   H61       1.0  0.40303  0.13119  0.33378  1.0000
  H   H62       1.0  0.52562  0.20254  0.34632  1.0000
  H   H63       1.0  0.47457  0.08073  0.34120  1.0000
  C   C109      1.0  0.64692  0.52650  0.34385  1.0000
  C   C110      1.0  0.64369  0.56044  0.34032  1.0000
  C   C111      1.0  0.67685  0.59810  0.33432  1.0000
  C   C112      1.0  0.71435  0.60177  0.33449  1.0000
  C   C113      1.0  0.71896  0.56843  0.34059  1.0000
  C   C114      1.0  0.68470  0.53105  0.34309  1.0000
  H   H64       1.0  0.73847  0.62906  0.33144  1.0000
  H   H65       1.0  0.68714  0.50650  0.34540  1.0000
  H   H66       1.0  0.61647  0.55765  0.33941  1.0000
  C   C115      1.0  0.88986  0.38530  0.34383  1.0000
  C   C116      1.0  0.92704  0.38855  0.34046  1.0000
  C   C117      1.0  0.93158  0.35541  0.33483  1.0000
  C   C118      1.0  0.89776  0.31789  0.33510  1.0000
  C   C119      1.0  0.85979  0.31326  0.34096  1.0000
  C   C120      1.0  0.85665  0.34751  0.34313  1.0000
  H   H67       1.0  0.90094  0.29378  0.33234  1.0000
  H   H68       1.0  0.82965  0.34506  0.34536  1.0000
  H   H69       1.0  0.95146  0.41578  0.33955  1.0000
  C   C121      1.0  0.52264  0.89372  0.34395  1.0000
  C   C122      1.0  0.55656  0.93090  0.34057  1.0000
  C   C123      1.0  0.59423  0.93544  0.33462  1.0000
  C   C124      1.0  0.59793  0.90162  0.33469  1.0000
  C   C125      1.0  0.56461  0.86365  0.34067  1.0000
  C   C126      1.0  0.52722  0.86050  0.34306  1.0000
  H   H70       1.0  0.62523  0.90481  0.33176  1.0000
  H   H71       1.0  0.50267  0.83351  0.34530  1.0000
  H   H72       1.0  0.55373  0.95532  0.33984  1.0000
  C   C127      1.0  0.38139  0.50955  0.34377  1.0000
  C   C128      1.0  0.38460  0.47559  0.34051  1.0000
  C   C129      1.0  0.35143  0.43793  0.33483  1.0000
  C   C130      1.0  0.31393  0.43428  0.33505  1.0000
  C   C131      1.0  0.30934  0.46764  0.34093  1.0000
  C   C132      1.0  0.34362  0.50501  0.34307  1.0000
  H   H73       1.0  0.28979  0.40699  0.33231  1.0000
  H   H74       1.0  0.34120  0.52958  0.34525  1.0000
  H   H75       1.0  0.41181  0.47837  0.33952  1.0000
  C   C133      1.0  0.13866  0.65110  0.34536  1.0000
  C   C134      1.0  0.10144  0.64774  0.34146  1.0000
  C   C135      1.0  0.09680  0.68080  0.33500  1.0000
  C   C136      1.0  0.13056  0.71837  0.33504  1.0000
  C   C137      1.0  0.16853  0.72308  0.34163  1.0000
  C   C138      1.0  0.17182  0.68893  0.34470  1.0000
  H   H76       1.0  0.12733  0.74244  0.33166  1.0000
  H   H77       1.0  0.19887  0.69151  0.34750  1.0000
  H   H78       1.0  0.07707  0.62047  0.34051  1.0000
  N   N19       1.0  0.22798  0.48614  0.39223  1.0000
  C   C139      1.0  0.26354  0.48903  0.39745  1.0000
  H   H79       1.0  0.28396  0.50940  0.43958  1.0000
  N   N20       1.0  0.54618  0.76378  0.39155  1.0000
  C   C140      1.0  0.54327  0.79643  0.39696  1.0000
  H   H80       1.0  0.52287  0.79641  0.43909  1.0000
  N   N21       1.0  0.26788  0.80491  0.39423  1.0000
  C   C141      1.0  0.23512  0.76946  0.40020  1.0000
  H   H81       1.0  0.23459  0.74949  0.44459  1.0000
  N   N22       1.0  0.80045  0.55009  0.39172  1.0000
  C   C142      1.0  0.76487  0.54713  0.39698  1.0000
  H   H82       1.0  0.74447  0.52672  0.43911  1.0000
  N   N23       1.0  0.48211  0.27227  0.39286  1.0000
  C   C143      1.0  0.48504  0.23963  0.39828  1.0000
  H   H83       1.0  0.50547  0.23967  0.44035  1.0000
  N   N24       1.0  0.75994  0.23183  0.39215  1.0000
  C   C144      1.0  0.79259  0.26739  0.39743  1.0000
  H   H84       1.0  0.79259  0.28781  0.43952  1.0000
  C   C145      1.0  0.13715  0.54350  0.35314  1.0000
  C   C146      1.0  0.14143  0.61663  0.35045  1.0000
  N   N25       1.0  0.11653  0.58733  0.40572  1.0000
  C   C147      1.0  0.11337  0.55156  0.41101  1.0000
  C   C148      1.0  0.08845  0.52570  0.47485  1.0000
  O   O25       1.0  0.05558  0.52128  0.47724  1.0000
  O   O26       1.0  0.10508  0.52884  0.55505  1.0000
  C   C149      1.0  0.10031  0.49238  0.58703  1.0000
  H   H85       1.0  0.11415  0.49747  0.65297  1.0000
  H   H86       1.0  0.11445  0.48124  0.54238  1.0000
  H   H87       1.0  0.06948  0.47033  0.59481  1.0000
  C   C150      1.0  0.48902  0.61562  0.35141  1.0000
  C   C151      1.0  0.41593  0.54674  0.34855  1.0000
  N   N26       1.0  0.44522  0.55115  0.40386  1.0000
  C   C152      1.0  0.48098  0.58376  0.40917  1.0000
  C   C153      1.0  0.50678  0.58468  0.47299  1.0000
  O   O27       1.0  0.51193  0.55663  0.47313  1.0000
  O   O28       1.0  0.50386  0.59719  0.55453  1.0000
  C   C154      1.0  0.54000  0.62974  0.58530  1.0000
  H   H88       1.0  0.53518  0.63763  0.65250  1.0000
  H   H89       1.0  0.54955  0.65517  0.54170  1.0000
  H   H90       1.0  0.56312  0.62230  0.58992  1.0000
  C   C155      1.0  0.41647  0.89502  0.35282  1.0000
  C   C156      1.0  0.48543  0.89100  0.34906  1.0000
  N   N27       1.0  0.48096  0.91565  0.40502  1.0000
  C   C157      1.0  0.44829  0.91866  0.41084  1.0000
  C   C158      1.0  0.44734  0.94333  0.47513  1.0000
  O   O29       1.0  0.47560  0.97633  0.47879  1.0000
  O   O30       1.0  0.43431  0.92698  0.55585  1.0000
  C   C159      1.0  0.40165  0.93032  0.58691  1.0000
  H   H91       1.0  0.39342  0.91692  0.65337  1.0000
  H   H92       1.0  0.37644  0.91496  0.54248  1.0000
  H   H93       1.0  0.40914  0.96086  0.59326  1.0000
  C   C160      1.0  0.89136  0.49288  0.35168  1.0000
  C   C161      1.0  0.88716  0.41981  0.34872  1.0000
  N   N28       1.0  0.91203  0.44909  0.40406  1.0000
  C   C162      1.0  0.91514  0.48483  0.40950  1.0000
  C   C163      1.0  0.94005  0.51061  0.47323  1.0000
  O   O31       1.0  0.97298  0.51517  0.47672  1.0000
  O   O32       1.0  0.92392  0.50773  0.55404  1.0000
  C   C164      1.0  0.92796  0.54406  0.58482  1.0000
  H   H94       1.0  0.91468  0.53922  0.65137  1.0000
  H   H95       1.0  0.91287  0.55422  0.54037  1.0000
  H   H96       1.0  0.95864  0.56675  0.59089  1.0000
  C   C165      1.0  0.53931  0.42042  0.35227  1.0000
  C   C166      1.0  0.61240  0.48930  0.34892  1.0000
  N   N29       1.0  0.58314  0.48495  0.40428  1.0000
  C   C167      1.0  0.54739  0.45233  0.40987  1.0000
  C   C168      1.0  0.52159  0.45147  0.47377  1.0000
  O   O33       1.0  0.51716  0.47992  0.47601  1.0000
  O   O34       1.0  0.52481  0.43809  0.55404  1.0000
  C   C169      1.0  0.48836  0.40649  0.58638  1.0000
  H   H97       1.0  0.49352  0.39783  0.65235  1.0000
  H   H98       1.0  0.47712  0.38113  0.54193  1.0000
  H   H99       1.0  0.46637  0.41534  0.59421  1.0000
  C   C170      1.0  0.61177  0.14081  0.35254  1.0000
  C   C171      1.0  0.54288  0.14502  0.34985  1.0000
  N   N30       1.0  0.54732  0.12015  0.40514  1.0000
  C   C172      1.0  0.57994  0.11701  0.41036  1.0000
  C   C173      1.0  0.58088  0.09211  0.47413  1.0000
  O   O35       1.0  0.55280  0.05893  0.47439  1.0000
  O   O36       1.0  0.59349  0.10755  0.55562  1.0000
  C   C174      1.0  0.62601  0.10388  0.58622  1.0000
  H   H100      1.0  0.63399  0.11661  0.65338  1.0000
  H   H101      1.0  0.65141  0.11969  0.54250  1.0000
  H   H102      1.0  0.61850  0.07329  0.59086  1.0000
  N   N31       1.0  0.99094  0.37146  0.40649  1.0000
  C   C175      1.0  0.03050  0.38950  0.41152  1.0000
  H   H103      1.0  0.04357  0.39775  0.47322  1.0000
  N   N32       1.0  0.66127  0.64186  0.40553  1.0000
  C   C176      1.0  0.64344  0.66356  0.41049  1.0000
  H   H104      1.0  0.63534  0.66860  0.47214  1.0000
  N   N33       1.0  0.39042  0.04110  0.40813  1.0000
  C   C177      1.0  0.36884  0.00155  0.41294  1.0000
  H   H105      1.0  0.36364  0.98835  0.47454  1.0000
  N   N34       1.0  0.03735  0.66529  0.40607  1.0000
  C   C178      1.0  0.99779  0.64732  0.41064  1.0000
  H   H106      1.0  0.98453  0.63960  0.47223  1.0000
  N   N35       1.0  0.36728  0.39444  0.40643  1.0000
  C   C179      1.0  0.38523  0.37284  0.41148  1.0000
  H   H107      1.0  0.39341  0.36794  0.47317  1.0000
  N   N36       1.0  0.63799  0.99475  0.40612  1.0000
  C   C180      1.0  0.65970  0.03429  0.41107  1.0000
  H   H108      1.0  0.66476  0.04742  0.47274  1.0000
