data_image0
_chemical_formula_structural       C4NC2HNHNC2HNHNC2HNHC5H3C2O3C5H3C2O3CNCOCH3NHCNCOCH3NHCNCOCH3NHC4NC2HNHNC2HNHNC2HNHC5H3C2O3C5H3C2O3CNCOCH3NHCNCOCH3NHCNCOCH3NHC4NC2HNHNC2HNHNC2HNHC5H3C2O3C5H3C2O3CNCOCH3NHCNCOCH3NHCNCOCH3NHC4NC2HNHNC2HNHNC2HNHC5H3C2O3C5H3C2O3CNCOCH3NHCNCOCH3NHCNCOCH3NH
_chemical_formula_sum              "C132 N48 H96 O36"
_cell_length_a       43.5783
_cell_length_b       43.5782
_cell_length_c       15.0514
_cell_angle_alpha    90
_cell_angle_beta     90
_cell_angle_gamma    120

_space_group_name_H-M_alt    "P 1"
_space_group_IT_number       1

loop_
  _space_group_symop_operation_xyz
  'x, y, z'

loop_
  _atom_site_type_symbol
  _atom_site_label
  _atom_site_symmetry_multiplicity
  _atom_site_fract_x
  _atom_site_fract_y
  _atom_site_fract_z
  _atom_site_occupancy
  C   C1        1.0  0.18840  0.31839  0.24429  1.0000
  C   C2        1.0  0.21268  0.30596  0.25759  1.0000
  C   C3        1.0  0.30351  0.17435  0.41295  1.0000
  C   C4        1.0  0.27630  0.18310  0.40315  1.0000
  N   N1        1.0  0.23308  0.20946  0.32379  1.0000
  C   C5        1.0  0.21351  0.22164  0.28307  1.0000
  C   C6        1.0  0.22271  0.25737  0.29496  1.0000
  H   H1        1.0  0.19318  0.20512  0.24220  1.0000
  N   N2        1.0  0.20399  0.27117  0.25620  1.0000
  H   H2        1.0  0.18249  0.25448  0.22508  1.0000
  N   N3        1.0  0.28627  0.02276  0.32389  1.0000
  C   C7        1.0  0.27408  0.49101  0.28320  1.0000
  C   C8        1.0  0.23836  0.46448  0.29516  1.0000
  H   H3        1.0  0.29059  0.48719  0.24230  1.0000
  N   N4        1.0  0.22455  0.43196  0.25640  1.0000
  H   H4        1.0  0.24123  0.42715  0.22524  1.0000
  N   N5        1.0  0.47296  0.26265  0.32367  1.0000
  C   C9        1.0  0.00470  0.28221  0.28291  1.0000
  C   C10       1.0  0.03122  0.27299  0.29478  1.0000
  H   H5        1.0  0.00851  0.30254  0.24204  1.0000
  N   N6        1.0  0.06375  0.29172  0.25603  1.0000
  H   H6        1.0  0.06857  0.31322  0.22494  1.0000
  C   C11       1.0  0.17733  0.36915  0.24448  1.0000
  C   C12       1.0  0.14050  0.34444  0.24344  1.0000
  C   C13       1.0  0.12656  0.30731  0.24423  1.0000
  C   C14       1.0  0.15127  0.29520  0.24331  1.0000
  C   C15       1.0  0.20052  0.35522  0.24336  1.0000
  H   H7        1.0  0.14176  0.26865  0.24858  1.0000
  H   H8        1.0  0.22706  0.37225  0.24896  1.0000
  H   H9        1.0  0.12345  0.35395  0.24881  1.0000
  C   C16       1.0  0.18975  0.40585  0.25785  1.0000
  C   C17       1.0  0.08985  0.28303  0.25743  1.0000
  O   O1        1.0  0.24697  0.33041  0.27513  1.0000
  O   O2        1.0  0.16531  0.41569  0.27552  1.0000
  O   O3        1.0  0.08000  0.24873  0.27491  1.0000
  C   C18       1.0  0.32139  0.12832  0.41290  1.0000
  C   C19       1.0  0.35722  0.15584  0.41319  1.0000
  C   C20       1.0  0.36743  0.19223  0.41293  1.0000
  C   C21       1.0  0.33990  0.20053  0.41313  1.0000
  C   C22       1.0  0.29521  0.13853  0.41319  1.0000
  H   H10       1.0  0.34681  0.22652  0.40784  1.0000
  H   H11       1.0  0.26921  0.11944  0.40791  1.0000
  H   H12       1.0  0.37631  0.14894  0.40786  1.0000
  C   C23       1.0  0.31264  0.09235  0.40319  1.0000
  C   C24       1.0  0.40339  0.21944  0.40309  1.0000
  O   O4        1.0  0.24323  0.15674  0.38181  1.0000
  O   O5        1.0  0.33899  0.08564  0.38183  1.0000
  O   O6        1.0  0.41010  0.25250  0.38167  1.0000
  C   C25       1.0  0.26077  0.22912  0.37942  1.0000
  N   N7        1.0  0.24994  0.27676  0.35177  1.0000
  C   C26       1.0  0.26884  0.26443  0.39511  1.0000
  O   O7        1.0  0.29581  0.28723  0.44944  1.0000
  C   C27       1.0  0.28408  0.28770  0.53850  1.0000
  H   H13       1.0  0.30700  0.30627  0.57742  1.0000
  H   H14       1.0  0.27273  0.26164  0.56982  1.0000
  H   H15       1.0  0.26468  0.29664  0.53983  1.0000
  N   N8        1.0  0.28140  0.21649  0.41284  1.0000
  H   H16       1.0  0.30235  0.23335  0.44540  1.0000
  C   C28       1.0  0.26662  0.03080  0.37955  1.0000
  N   N9        1.0  0.21898  0.47233  0.35200  1.0000
  C   C29       1.0  0.23131  0.00356  0.39531  1.0000
  O   O8        1.0  0.20853  0.00774  0.44968  1.0000
  C   C30       1.0  0.20810  0.99556  0.53875  1.0000
  H   H17       1.0  0.18953  0.99992  0.57770  1.0000
  H   H18       1.0  0.23417  0.01029  0.57002  1.0000
  H   H19       1.0  0.19916  0.96722  0.54012  1.0000
  N   N10       1.0  0.27926  0.06408  0.41293  1.0000
  H   H20       1.0  0.26240  0.06816  0.44550  1.0000
  C   C31       1.0  0.46493  0.23497  0.37932  1.0000
  N   N11       1.0  0.02339  0.24578  0.35162  1.0000
  C   C32       1.0  0.49217  0.22689  0.39500  1.0000
  O   O9        1.0  0.48800  0.19993  0.44936  1.0000
  C   C33       1.0  0.50022  0.21168  0.53840  1.0000
  H   H21       1.0  0.49587  0.18876  0.57734  1.0000
  H   H22       1.0  0.48552  0.22304  0.56972  1.0000
  H   H23       1.0  0.52856  0.23108  0.53970  1.0000
  N   N12       1.0  0.43167  0.21434  0.41279  1.0000
  H   H24       1.0  0.42760  0.19341  0.44538  1.0000
  C   C34       1.0  0.18840  0.81839  0.24429  1.0000
  C   C35       1.0  0.21268  0.80596  0.25759  1.0000
  C   C36       1.0  0.30351  0.67436  0.41295  1.0000
  C   C37       1.0  0.27630  0.68310  0.40315  1.0000
  N   N13       1.0  0.23308  0.70946  0.32379  1.0000
  C   C38       1.0  0.21350  0.72164  0.28307  1.0000
  C   C39       1.0  0.22271  0.75737  0.29496  1.0000
  H   H25       1.0  0.19318  0.70512  0.24220  1.0000
  N   N14       1.0  0.20399  0.77117  0.25620  1.0000
  H   H26       1.0  0.18249  0.75448  0.22508  1.0000
  N   N15       1.0  0.28627  0.52277  0.32389  1.0000
  C   C40       1.0  0.27408  0.99101  0.28320  1.0000
  C   C41       1.0  0.23836  0.96448  0.29516  1.0000
  H   H27       1.0  0.29059  0.98719  0.24230  1.0000
  N   N16       1.0  0.22455  0.93196  0.25640  1.0000
  H   H28       1.0  0.24123  0.92715  0.22524  1.0000
  N   N17       1.0  0.47296  0.76265  0.32367  1.0000
  C   C42       1.0  0.00470  0.78221  0.28291  1.0000
  C   C43       1.0  0.03122  0.77300  0.29478  1.0000
  H   H29       1.0  0.00851  0.80254  0.24204  1.0000
  N   N18       1.0  0.06375  0.79172  0.25603  1.0000
  H   H30       1.0  0.06857  0.81322  0.22494  1.0000
  C   C44       1.0  0.17732  0.86915  0.24448  1.0000
  C   C45       1.0  0.14050  0.84444  0.24344  1.0000
  C   C46       1.0  0.12655  0.80731  0.24423  1.0000
  C   C47       1.0  0.15127  0.79520  0.24331  1.0000
  C   C48       1.0  0.20052  0.85522  0.24336  1.0000
  H   H31       1.0  0.14176  0.76865  0.24858  1.0000
  H   H32       1.0  0.22706  0.87225  0.24896  1.0000
  H   H33       1.0  0.12345  0.85395  0.24881  1.0000
  C   C49       1.0  0.18975  0.90585  0.25785  1.0000
  C   C50       1.0  0.08985  0.78303  0.25743  1.0000
  O   O10       1.0  0.24697  0.83041  0.27513  1.0000
  O   O11       1.0  0.16531  0.91569  0.27552  1.0000
  O   O12       1.0  0.08000  0.74873  0.27491  1.0000
  C   C51       1.0  0.32139  0.62832  0.41290  1.0000
  C   C52       1.0  0.35722  0.65584  0.41319  1.0000
  C   C53       1.0  0.36743  0.69223  0.41293  1.0000
  C   C54       1.0  0.33990  0.70053  0.41313  1.0000
  C   C55       1.0  0.29521  0.63853  0.41319  1.0000
  H   H34       1.0  0.34681  0.72652  0.40784  1.0000
  H   H35       1.0  0.26921  0.61944  0.40791  1.0000
  H   H36       1.0  0.37630  0.64893  0.40786  1.0000
  C   C56       1.0  0.31264  0.59235  0.40319  1.0000
  C   C57       1.0  0.40339  0.71944  0.40309  1.0000
  O   O13       1.0  0.24323  0.65675  0.38181  1.0000
  O   O14       1.0  0.33899  0.58564  0.38183  1.0000
  O   O15       1.0  0.41010  0.75250  0.38167  1.0000
  C   C58       1.0  0.26077  0.72912  0.37942  1.0000
  N   N19       1.0  0.24994  0.77676  0.35177  1.0000
  C   C59       1.0  0.26884  0.76443  0.39511  1.0000
  O   O16       1.0  0.29581  0.78723  0.44944  1.0000
  C   C60       1.0  0.28407  0.78770  0.53850  1.0000
  H   H37       1.0  0.30700  0.80627  0.57742  1.0000
  H   H38       1.0  0.27273  0.76163  0.56982  1.0000
  H   H39       1.0  0.26468  0.79664  0.53983  1.0000
  N   N20       1.0  0.28140  0.71649  0.41284  1.0000
  H   H40       1.0  0.30235  0.73335  0.44540  1.0000
  C   C61       1.0  0.26662  0.53080  0.37955  1.0000
  N   N21       1.0  0.21898  0.97232  0.35200  1.0000
  C   C62       1.0  0.23131  0.50356  0.39531  1.0000
  O   O17       1.0  0.20853  0.50774  0.44968  1.0000
  C   C63       1.0  0.20810  0.49556  0.53876  1.0000
  H   H41       1.0  0.18953  0.49992  0.57770  1.0000
  H   H42       1.0  0.23417  0.51029  0.57002  1.0000
  H   H43       1.0  0.19916  0.46722  0.54012  1.0000
  N   N22       1.0  0.27926  0.56408  0.41293  1.0000
  H   H44       1.0  0.26240  0.56816  0.44550  1.0000
  C   C64       1.0  0.46493  0.73496  0.37932  1.0000
  N   N23       1.0  0.02339  0.74578  0.35162  1.0000
  C   C65       1.0  0.49217  0.72689  0.39500  1.0000
  O   O18       1.0  0.48800  0.69993  0.44936  1.0000
  C   C66       1.0  0.50022  0.71168  0.53840  1.0000
  H   H45       1.0  0.49587  0.68876  0.57734  1.0000
  H   H46       1.0  0.48551  0.72304  0.56972  1.0000
  H   H47       1.0  0.52856  0.73108  0.53970  1.0000
  N   N24       1.0  0.43167  0.71434  0.41279  1.0000
  H   H48       1.0  0.42760  0.69341  0.44538  1.0000
  C   C67       1.0  0.68840  0.31839  0.24429  1.0000
  C   C68       1.0  0.71268  0.30596  0.25759  1.0000
  C   C69       1.0  0.80351  0.17435  0.41295  1.0000
  C   C70       1.0  0.77630  0.18310  0.40315  1.0000
  N   N25       1.0  0.73308  0.20946  0.32379  1.0000
  C   C71       1.0  0.71350  0.22164  0.28307  1.0000
  C   C72       1.0  0.72271  0.25737  0.29496  1.0000
  H   H49       1.0  0.69318  0.20512  0.24220  1.0000
  N   N26       1.0  0.70399  0.27117  0.25620  1.0000
  H   H50       1.0  0.68249  0.25448  0.22508  1.0000
  N   N27       1.0  0.78627  0.02276  0.32389  1.0000
  C   C73       1.0  0.77408  0.49101  0.28320  1.0000
  C   C74       1.0  0.73836  0.46448  0.29516  1.0000
  H   H51       1.0  0.79059  0.48719  0.24230  1.0000
  N   N28       1.0  0.72455  0.43196  0.25640  1.0000
  H   H52       1.0  0.74123  0.42715  0.22524  1.0000
  N   N29       1.0  0.97296  0.26265  0.32367  1.0000
  C   C75       1.0  0.50470  0.28221  0.28291  1.0000
  C   C76       1.0  0.53122  0.27299  0.29478  1.0000
  H   H53       1.0  0.50851  0.30254  0.24204  1.0000
  N   N30       1.0  0.56375  0.29172  0.25603  1.0000
  H   H54       1.0  0.56857  0.31322  0.22494  1.0000
  C   C77       1.0  0.67732  0.36915  0.24448  1.0000
  C   C78       1.0  0.64050  0.34444  0.24344  1.0000
  C   C79       1.0  0.62655  0.30731  0.24423  1.0000
  C   C80       1.0  0.65127  0.29520  0.24331  1.0000
  C   C81       1.0  0.70052  0.35522  0.24336  1.0000
  H   H55       1.0  0.64176  0.26865  0.24858  1.0000
  H   H56       1.0  0.72706  0.37225  0.24896  1.0000
  H   H57       1.0  0.62345  0.35395  0.24881  1.0000
  C   C82       1.0  0.68975  0.40585  0.25785  1.0000
  C   C83       1.0  0.58985  0.28303  0.25743  1.0000
  O   O19       1.0  0.74697  0.33041  0.27513  1.0000
  O   O20       1.0  0.66531  0.41569  0.27552  1.0000
  O   O21       1.0  0.58000  0.24873  0.27491  1.0000
  C   C84       1.0  0.82139  0.12832  0.41290  1.0000
  C   C85       1.0  0.85722  0.15584  0.41319  1.0000
  C   C86       1.0  0.86743  0.19223  0.41293  1.0000
  C   C87       1.0  0.83991  0.20053  0.41313  1.0000
  C   C88       1.0  0.79521  0.13853  0.41319  1.0000
  H   H58       1.0  0.84681  0.22652  0.40784  1.0000
  H   H59       1.0  0.76921  0.11944  0.40791  1.0000
  H   H60       1.0  0.87631  0.14894  0.40786  1.0000
  C   C89       1.0  0.81264  0.09235  0.40319  1.0000
  C   C90       1.0  0.90339  0.21944  0.40309  1.0000
  O   O22       1.0  0.74323  0.15674  0.38181  1.0000
  O   O23       1.0  0.83899  0.08564  0.38183  1.0000
  O   O24       1.0  0.91010  0.25250  0.38167  1.0000
  C   C91       1.0  0.76077  0.22912  0.37942  1.0000
  N   N31       1.0  0.74994  0.27676  0.35177  1.0000
  C   C92       1.0  0.76884  0.26443  0.39511  1.0000
  O   O25       1.0  0.79581  0.28723  0.44944  1.0000
  C   C93       1.0  0.78407  0.28770  0.53850  1.0000
  H   H61       1.0  0.80700  0.30627  0.57742  1.0000
  H   H62       1.0  0.77273  0.26164  0.56982  1.0000
  H   H63       1.0  0.76468  0.29664  0.53983  1.0000
  N   N32       1.0  0.78140  0.21649  0.41284  1.0000
  H   H64       1.0  0.80234  0.23335  0.44540  1.0000
  C   C94       1.0  0.76662  0.03080  0.37955  1.0000
  N   N33       1.0  0.71898  0.47233  0.35200  1.0000
  C   C95       1.0  0.73131  0.00356  0.39531  1.0000
  O   O26       1.0  0.70853  0.00774  0.44968  1.0000
  C   C96       1.0  0.70810  0.99556  0.53875  1.0000
  H   H65       1.0  0.68953  0.99992  0.57770  1.0000
  H   H66       1.0  0.73417  0.01029  0.57002  1.0000
  H   H67       1.0  0.69916  0.96722  0.54012  1.0000
  N   N34       1.0  0.77926  0.06408  0.41293  1.0000
  H   H68       1.0  0.76240  0.06816  0.44550  1.0000
  C   C97       1.0  0.96493  0.23497  0.37932  1.0000
  N   N35       1.0  0.52339  0.24578  0.35162  1.0000
  C   C98       1.0  0.99217  0.22689  0.39500  1.0000
  O   O27       1.0  0.98800  0.19993  0.44936  1.0000
  C   C99       1.0  0.00022  0.21168  0.53840  1.0000
  H   H69       1.0  0.99587  0.18876  0.57734  1.0000
  H   H70       1.0  0.98552  0.22304  0.56972  1.0000
  H   H71       1.0  0.02856  0.23108  0.53970  1.0000
  N   N36       1.0  0.93167  0.21434  0.41279  1.0000
  H   H72       1.0  0.92760  0.19341  0.44538  1.0000
  C   C100      1.0  0.68840  0.81839  0.24429  1.0000
  C   C101      1.0  0.71268  0.80596  0.25759  1.0000
  C   C102      1.0  0.80351  0.67436  0.41295  1.0000
  C   C103      1.0  0.77630  0.68310  0.40315  1.0000
  N   N37       1.0  0.73307  0.70946  0.32379  1.0000
  C   C104      1.0  0.71350  0.72164  0.28307  1.0000
  C   C105      1.0  0.72271  0.75737  0.29496  1.0000
  H   H73       1.0  0.69317  0.70512  0.24220  1.0000
  N   N38       1.0  0.70399  0.77117  0.25620  1.0000
  H   H74       1.0  0.68249  0.75448  0.22508  1.0000
  N   N39       1.0  0.78627  0.52277  0.32389  1.0000
  C   C106      1.0  0.77408  0.99101  0.28320  1.0000
  C   C107      1.0  0.73835  0.96448  0.29516  1.0000
  H   H75       1.0  0.79059  0.98719  0.24230  1.0000
  N   N40       1.0  0.72455  0.93196  0.25640  1.0000
  H   H76       1.0  0.74123  0.92715  0.22524  1.0000
  N   N41       1.0  0.97296  0.76265  0.32367  1.0000
  C   C108      1.0  0.50470  0.78221  0.28291  1.0000
  C   C109      1.0  0.53122  0.77300  0.29478  1.0000
  H   H77       1.0  0.50851  0.80254  0.24204  1.0000
  N   N42       1.0  0.56375  0.79172  0.25603  1.0000
  H   H78       1.0  0.56856  0.81322  0.22494  1.0000
  C   C110      1.0  0.67732  0.86915  0.24448  1.0000
  C   C111      1.0  0.64050  0.84444  0.24344  1.0000
  C   C112      1.0  0.62655  0.80731  0.24423  1.0000
  C   C113      1.0  0.65127  0.79520  0.24331  1.0000
  C   C114      1.0  0.70052  0.85522  0.24336  1.0000
  H   H79       1.0  0.64176  0.76865  0.24858  1.0000
  H   H80       1.0  0.72706  0.87225  0.24896  1.0000
  H   H81       1.0  0.62345  0.85395  0.24881  1.0000
  C   C115      1.0  0.68975  0.90585  0.25785  1.0000
  C   C116      1.0  0.58985  0.78303  0.25743  1.0000
  O   O28       1.0  0.74697  0.83041  0.27513  1.0000
  O   O29       1.0  0.66531  0.91569  0.27552  1.0000
  O   O30       1.0  0.58000  0.74873  0.27491  1.0000
  C   C117      1.0  0.82139  0.62832  0.41290  1.0000
  C   C118      1.0  0.85722  0.65584  0.41319  1.0000
  C   C119      1.0  0.86743  0.69223  0.41293  1.0000
  C   C120      1.0  0.83990  0.70053  0.41313  1.0000
  C   C121      1.0  0.79521  0.63853  0.41319  1.0000
  H   H82       1.0  0.84681  0.72652  0.40784  1.0000
  H   H83       1.0  0.76921  0.61944  0.40791  1.0000
  H   H84       1.0  0.87631  0.64893  0.40786  1.0000
  C   C122      1.0  0.81264  0.59235  0.40319  1.0000
  C   C123      1.0  0.90339  0.71944  0.40309  1.0000
  O   O31       1.0  0.74323  0.65675  0.38181  1.0000
  O   O32       1.0  0.83899  0.58564  0.38183  1.0000
  O   O33       1.0  0.91009  0.75250  0.38167  1.0000
  C   C124      1.0  0.76077  0.72912  0.37942  1.0000
  N   N43       1.0  0.74994  0.77676  0.35177  1.0000
  C   C125      1.0  0.76884  0.76443  0.39511  1.0000
  O   O34       1.0  0.79581  0.78723  0.44944  1.0000
  C   C126      1.0  0.78407  0.78770  0.53850  1.0000
  H   H85       1.0  0.80700  0.80627  0.57742  1.0000
  H   H86       1.0  0.77273  0.76163  0.56982  1.0000
  H   H87       1.0  0.76468  0.79664  0.53983  1.0000
  N   N44       1.0  0.78140  0.71649  0.41284  1.0000
  H   H88       1.0  0.80235  0.73335  0.44540  1.0000
  C   C127      1.0  0.76662  0.53080  0.37955  1.0000
  N   N45       1.0  0.71898  0.97232  0.35200  1.0000
  C   C128      1.0  0.73131  0.50356  0.39531  1.0000
  O   O35       1.0  0.70853  0.50774  0.44968  1.0000
  C   C129      1.0  0.70810  0.49556  0.53876  1.0000
  H   H89       1.0  0.68953  0.49992  0.57770  1.0000
  H   H90       1.0  0.73417  0.51029  0.57002  1.0000
  H   H91       1.0  0.69916  0.46722  0.54012  1.0000
  N   N46       1.0  0.77926  0.56408  0.41293  1.0000
  H   H92       1.0  0.76240  0.56816  0.44550  1.0000
  C   C130      1.0  0.96494  0.73496  0.37932  1.0000
  N   N47       1.0  0.52339  0.74578  0.35162  1.0000
  C   C131      1.0  0.99217  0.72689  0.39500  1.0000
  O   O36       1.0  0.98800  0.69993  0.44936  1.0000
  C   C132      1.0  0.00022  0.71168  0.53840  1.0000
  H   H93       1.0  0.99587  0.68876  0.57734  1.0000
  H   H94       1.0  0.98552  0.72304  0.56972  1.0000
  H   H95       1.0  0.02856  0.73108  0.53970  1.0000
  N   N48       1.0  0.93167  0.71434  0.41279  1.0000
  H   H96       1.0  0.92760  0.69341  0.44538  1.0000
