data_image0
_chemical_formula_structural       COCHCOCH3C4HC2HC3OH4C6O2H4C6O2H4NCHNCHNCHNCHNCHNCHC3HOCOC3HOC3OHC3HOC3OHC2NC2OHC2NC2OHC2NC2OC2NC2OHC2NC2OHC2NC2OHC3OH4C6O2H4C6O2H4NCHNCHNCHNCHNCHNCHC3HOCOC3HOC3OHC3HOC3OHC2NC2OHC2NC2OHC2NC2OC2NC2OHC2NC2OHC2NC2OHC6O2H3C6O2H4C6O2H4NCHNCHNCHNCHNCHNCHC3HOC3OHC3HOC3OHC3HOC3OHC2NC2OHC2NC2OHC2NC2OHC2NC2OHC2NC2OHC2NC2OHC6O2H3C6O2H4C6O2H4NCHNCHNCHNCHNCHNCHC3HOC3OHC3HOC3OHC3HOC3OHC2NC2OHC2NC2OHC2NC2OHC2NC2OHC2NC2OHC2NC2OH
_chemical_formula_sum              "C264 O72 H120 N48"
_cell_length_a       46.1611
_cell_length_b       46.161
_cell_length_c       14.9469
_cell_angle_alpha    90
_cell_angle_beta     90
_cell_angle_gamma    120

_space_group_name_H-M_alt    "P 1"
_space_group_IT_number       1

loop_
  _space_group_symop_operation_xyz
  'x, y, z'

loop_
  _atom_site_type_symbol
  _atom_site_label
  _atom_site_symmetry_multiplicity
  _atom_site_fract_x
  _atom_site_fract_y
  _atom_site_fract_z
  _atom_site_occupancy
  C   C1        1.0  0.02081  0.26096  0.31887  1.0000
  O   O1        1.0  0.02896  0.31670  0.28138  1.0000
  C   C2        1.0  0.03955  0.24429  0.33309  1.0000
  H   H1        1.0  0.02801  0.21926  0.34352  1.0000
  C   C3        1.0  0.02081  0.76096  0.31887  1.0000
  O   O2        1.0  0.02896  0.81670  0.28138  1.0000
  C   C4        1.0  0.03955  0.74429  0.33309  1.0000
  H   H2        1.0  0.02801  0.71926  0.34352  1.0000
  H   H3        1.0  0.02519  0.31217  0.21687  1.0000
  H   H4        1.0  0.02518  0.81217  0.21687  1.0000
  C   C5        1.0  0.04084  0.29690  0.31268  1.0000
  C   C6        1.0  0.04084  0.79690  0.31268  1.0000
  C   C7        1.0  0.07521  0.31453  0.33654  1.0000
  C   C8        1.0  0.07458  0.26100  0.34357  1.0000
  H   H5        1.0  0.07819  0.32958  0.51820  1.0000
  C   C9        1.0  0.07521  0.81453  0.33654  1.0000
  C   C10       1.0  0.07458  0.76100  0.34357  1.0000
  H   H6        1.0  0.07819  0.82958  0.51820  1.0000
  C   C11       1.0  0.48450  0.24254  0.31899  1.0000
  C   C12       1.0  0.43010  0.18897  0.33680  1.0000
  C   C13       1.0  0.46447  0.20660  0.31293  1.0000
  O   O3        1.0  0.47634  0.18680  0.28163  1.0000
  H   H7        1.0  0.98007  0.19129  0.21709  1.0000
  H   H8        1.0  0.52518  0.31217  0.21687  1.0000
  H   H9        1.0  0.37105  0.18673  0.29486  1.0000
  H   H10       1.0  0.13426  0.31689  0.29427  1.0000
  C   C14       1.0  0.26186  0.24284  0.31920  1.0000
  C   C15       1.0  0.31542  0.24198  0.33673  1.0000
  C   C16       1.0  0.29780  0.25874  0.31293  1.0000
  C   C17       1.0  0.24344  0.26072  0.31908  1.0000
  C   C18       1.0  0.20750  0.24481  0.31266  1.0000
  C   C19       1.0  0.18985  0.26155  0.33628  1.0000
  O   O4        1.0  0.31760  0.29043  0.28178  1.0000
  O   O5        1.0  0.18774  0.21313  0.28138  1.0000
  H   H11       1.0  0.31310  0.28972  0.21726  1.0000
  H   H12       1.0  0.19229  0.21388  0.21688  1.0000
  H   H13       1.0  0.31770  0.18529  0.29380  1.0000
  H   H14       1.0  0.18752  0.31831  0.29448  1.0000
  C   C20       1.0  0.26165  0.01995  0.31891  1.0000
  C   C21       1.0  0.26245  0.07433  0.33651  1.0000
  C   C22       1.0  0.24573  0.03996  0.31265  1.0000
  C   C23       1.0  0.24377  0.48364  0.31909  1.0000
  C   C24       1.0  0.25969  0.46362  0.31291  1.0000
  C   C25       1.0  0.24296  0.42925  0.33684  1.0000
  O   O6        1.0  0.21405  0.02806  0.28136  1.0000
  O   O7        1.0  0.29134  0.47551  0.28148  1.0000
  H   H15       1.0  0.21480  0.52426  0.21685  1.0000
  H   H16       1.0  0.29055  0.97923  0.21695  1.0000
  H   H17       1.0  0.31919  0.13344  0.29482  1.0000
  H   H18       1.0  0.18615  0.37017  0.29519  1.0000
  N   N1        1.0  0.13659  0.24101  0.27208  1.0000
  C   C26       1.0  0.10579  0.23818  0.27012  1.0000
  H   H19       1.0  0.09583  0.23841  0.20922  1.0000
  N   N2        1.0  0.26344  0.39654  0.27218  1.0000
  C   C27       1.0  0.26613  0.36849  0.27022  1.0000
  H   H20       1.0  0.26599  0.35841  0.20919  1.0000
  N   N3        1.0  0.10789  0.36802  0.27226  1.0000
  C   C28       1.0  0.13593  0.39875  0.27073  1.0000
  H   H21       1.0  0.14594  0.40906  0.20993  1.0000
  N   N4        1.0  0.36891  0.26294  0.27220  1.0000
  C   C29       1.0  0.39966  0.26567  0.27040  1.0000
  H   H22       1.0  0.40996  0.26604  0.20954  1.0000
  N   N5        1.0  0.24177  0.10692  0.27219  1.0000
  C   C30       1.0  0.23892  0.13487  0.27004  1.0000
  H   H23       1.0  0.23909  0.14499  0.20907  1.0000
  N   N6        1.0  0.39742  0.13573  0.27243  1.0000
  C   C31       1.0  0.36941  0.10497  0.27031  1.0000
  H   H24       1.0  0.35936  0.09502  0.20927  1.0000
  C   C32       1.0  0.46575  0.25920  0.33323  1.0000
  C   C33       1.0  0.43074  0.24250  0.34412  1.0000
  C   C34       1.0  0.41340  0.20730  0.34926  1.0000
  H   H25       1.0  0.47729  0.28426  0.34318  1.0000
  O   O8        1.0  0.37938  0.19057  0.35676  1.0000
  C   C35       1.0  0.09192  0.29620  0.34874  1.0000
  O   O9        1.0  0.12594  0.31290  0.35618  1.0000
  C   C36       1.0  0.24518  0.20742  0.33343  1.0000
  C   C37       1.0  0.26188  0.18909  0.34372  1.0000
  C   C38       1.0  0.29708  0.20693  0.34871  1.0000
  H   H26       1.0  0.22014  0.19394  0.34359  1.0000
  O   O10       1.0  0.31378  0.18960  0.35579  1.0000
  C   C39       1.0  0.20817  0.29658  0.34871  1.0000
  C   C40       1.0  0.24337  0.31445  0.34357  1.0000
  C   C41       1.0  0.26009  0.29614  0.33334  1.0000
  O   O11       1.0  0.19144  0.31387  0.35635  1.0000
  H   H27       1.0  0.28512  0.30963  0.34361  1.0000
  C   C42       1.0  0.29707  0.03871  0.33309  1.0000
  C   C43       1.0  0.31536  0.07373  0.34374  1.0000
  C   C44       1.0  0.29748  0.09105  0.34899  1.0000
  H   H28       1.0  0.31056  0.02717  0.34346  1.0000
  O   O12       1.0  0.31477  0.12507  0.35667  1.0000
  C   C45       1.0  0.20794  0.41255  0.34942  1.0000
  C   C46       1.0  0.19007  0.42988  0.34420  1.0000
  C   C47       1.0  0.20836  0.46489  0.33345  1.0000
  O   O13       1.0  0.19065  0.37853  0.35705  1.0000
  H   H29       1.0  0.19486  0.47644  0.34348  1.0000
  C   C48       1.0  0.15463  0.24515  0.34794  1.0000
  C   C49       1.0  0.09280  0.24393  0.34960  1.0000
  N   N7        1.0  0.11163  0.24945  0.42425  1.0000
  C   C50       1.0  0.14044  0.24827  0.42953  1.0000
  C   C51       1.0  0.15687  0.25523  0.51121  1.0000
  O   O14       1.0  0.14184  0.25365  0.58009  1.0000
  H   H30       1.0  0.17440  0.24895  0.51860  1.0000
  C   C52       1.0  0.25934  0.41038  0.34817  1.0000
  C   C53       1.0  0.26043  0.34974  0.34967  1.0000
  N   N8        1.0  0.25497  0.36306  0.42441  1.0000
  C   C54       1.0  0.25616  0.39305  0.42977  1.0000
  C   C55       1.0  0.24938  0.40262  0.51152  1.0000
  O   O15       1.0  0.25082  0.38907  0.58033  1.0000
  H   H31       1.0  0.25587  0.42649  0.51897  1.0000
  C   C56       1.0  0.09412  0.34976  0.34784  1.0000
  C   C57       1.0  0.15478  0.41165  0.35009  1.0000
  N   N9        1.0  0.14143  0.39261  0.42443  1.0000
  C   C58       1.0  0.11144  0.36379  0.42963  1.0000
  C   C59       1.0  0.10192  0.34724  0.51126  1.0000
  O   O16       1.0  0.11457  0.36318  0.57963  1.0000
  C   C60       1.0  0.35066  0.25829  0.34790  1.0000
  C   C61       1.0  0.41252  0.25959  0.34952  1.0000
  N   N10       1.0  0.39354  0.25376  0.42409  1.0000
  C   C62       1.0  0.36471  0.25488  0.42954  1.0000
  C   C63       1.0  0.34817  0.24766  0.51126  1.0000
  O   O17       1.0  0.36351  0.24940  0.57961  1.0000
  H   H32       1.0  0.33104  0.25448  0.51824  1.0000
  C   C64       1.0  0.24604  0.09315  0.34812  1.0000
  C   C65       1.0  0.24480  0.15380  0.34920  1.0000
  N   N11       1.0  0.25041  0.14055  0.42392  1.0000
  C   C66       1.0  0.24926  0.11059  0.42954  1.0000
  C   C67       1.0  0.25632  0.10127  0.51128  1.0000
  O   O18       1.0  0.25481  0.11481  0.58003  1.0000
  H   H33       1.0  0.25007  0.07747  0.51894  1.0000
  C   C68       1.0  0.41125  0.15374  0.34840  1.0000
  C   C69       1.0  0.35067  0.09197  0.34971  1.0000
  N   N12       1.0  0.36385  0.11071  0.42454  1.0000
  C   C70       1.0  0.39381  0.13955  0.42987  1.0000
  C   C71       1.0  0.40332  0.15593  0.51160  1.0000
  O   O19       1.0  0.38975  0.14095  0.58042  1.0000
  H   H34       1.0  0.42716  0.17336  0.51910  1.0000
  C   C72       1.0  0.48450  0.74254  0.31899  1.0000
  C   C73       1.0  0.43010  0.68897  0.33680  1.0000
  C   C74       1.0  0.46447  0.70660  0.31293  1.0000
  O   O20       1.0  0.47634  0.68680  0.28163  1.0000
  H   H35       1.0  0.98007  0.69129  0.21709  1.0000
  H   H36       1.0  0.52518  0.81217  0.21687  1.0000
  H   H37       1.0  0.37105  0.68673  0.29486  1.0000
  H   H38       1.0  0.13426  0.81690  0.29427  1.0000
  C   C75       1.0  0.26186  0.74284  0.31920  1.0000
  C   C76       1.0  0.31542  0.74199  0.33673  1.0000
  C   C77       1.0  0.29780  0.75874  0.31293  1.0000
  C   C78       1.0  0.24344  0.76073  0.31908  1.0000
  C   C79       1.0  0.20750  0.74481  0.31266  1.0000
  C   C80       1.0  0.18985  0.76155  0.33628  1.0000
  O   O21       1.0  0.31760  0.79043  0.28178  1.0000
  O   O22       1.0  0.18773  0.71313  0.28138  1.0000
  H   H39       1.0  0.31310  0.78972  0.21726  1.0000
  H   H40       1.0  0.19229  0.71388  0.21688  1.0000
  H   H41       1.0  0.31770  0.68529  0.29380  1.0000
  H   H42       1.0  0.18752  0.81831  0.29448  1.0000
  C   C81       1.0  0.26165  0.51995  0.31891  1.0000
  C   C82       1.0  0.26245  0.57434  0.33651  1.0000
  C   C83       1.0  0.24573  0.53996  0.31265  1.0000
  C   C84       1.0  0.24377  0.98364  0.31909  1.0000
  C   C85       1.0  0.25969  0.96362  0.31291  1.0000
  C   C86       1.0  0.24296  0.92925  0.33684  1.0000
  O   O23       1.0  0.21405  0.52806  0.28136  1.0000
  O   O24       1.0  0.29134  0.97550  0.28148  1.0000
  H   H43       1.0  0.21480  0.02426  0.21685  1.0000
  H   H44       1.0  0.29055  0.47923  0.21695  1.0000
  H   H45       1.0  0.31919  0.63344  0.29482  1.0000
  H   H46       1.0  0.18614  0.87017  0.29519  1.0000
  N   N13       1.0  0.13659  0.74101  0.27208  1.0000
  C   C87       1.0  0.10579  0.73818  0.27012  1.0000
  H   H47       1.0  0.09583  0.73841  0.20922  1.0000
  N   N14       1.0  0.26345  0.89654  0.27218  1.0000
  C   C88       1.0  0.26613  0.86849  0.27022  1.0000
  H   H48       1.0  0.26599  0.85841  0.20919  1.0000
  N   N15       1.0  0.10789  0.86802  0.27226  1.0000
  C   C89       1.0  0.13593  0.89875  0.27073  1.0000
  H   H49       1.0  0.14594  0.90906  0.20993  1.0000
  N   N16       1.0  0.36891  0.76294  0.27220  1.0000
  C   C90       1.0  0.39965  0.76567  0.27040  1.0000
  H   H50       1.0  0.40996  0.76604  0.20954  1.0000
  N   N17       1.0  0.24177  0.60692  0.27219  1.0000
  C   C91       1.0  0.23892  0.63487  0.27004  1.0000
  H   H51       1.0  0.23909  0.64499  0.20907  1.0000
  N   N18       1.0  0.39742  0.63573  0.27243  1.0000
  C   C92       1.0  0.36941  0.60497  0.27031  1.0000
  H   H52       1.0  0.35936  0.59502  0.20927  1.0000
  C   C93       1.0  0.46575  0.75921  0.33323  1.0000
  C   C94       1.0  0.43074  0.74250  0.34412  1.0000
  C   C95       1.0  0.41340  0.70730  0.34926  1.0000
  H   H53       1.0  0.47729  0.78426  0.34318  1.0000
  O   O25       1.0  0.37938  0.69057  0.35676  1.0000
  C   C96       1.0  0.09192  0.79620  0.34874  1.0000
  O   O26       1.0  0.12594  0.81290  0.35618  1.0000
  C   C97       1.0  0.24518  0.70743  0.33343  1.0000
  C   C98       1.0  0.26188  0.68909  0.34372  1.0000
  C   C99       1.0  0.29708  0.70693  0.34871  1.0000
  H   H54       1.0  0.22014  0.69394  0.34359  1.0000
  O   O27       1.0  0.31378  0.68960  0.35579  1.0000
  C   C100      1.0  0.20817  0.79658  0.34871  1.0000
  C   C101      1.0  0.24337  0.81445  0.34357  1.0000
  C   C102      1.0  0.26009  0.79614  0.33334  1.0000
  O   O28       1.0  0.19144  0.81387  0.35635  1.0000
  H   H55       1.0  0.28512  0.80963  0.34361  1.0000
  C   C103      1.0  0.29707  0.53871  0.33309  1.0000
  C   C104      1.0  0.31536  0.57373  0.34374  1.0000
  C   C105      1.0  0.29748  0.59105  0.34899  1.0000
  H   H56       1.0  0.31056  0.52717  0.34346  1.0000
  O   O29       1.0  0.31477  0.62506  0.35667  1.0000
  C   C106      1.0  0.20794  0.91255  0.34942  1.0000
  C   C107      1.0  0.19007  0.92988  0.34420  1.0000
  C   C108      1.0  0.20836  0.96489  0.33345  1.0000
  O   O30       1.0  0.19065  0.87853  0.35705  1.0000
  H   H57       1.0  0.19486  0.97644  0.34348  1.0000
  C   C109      1.0  0.15463  0.74515  0.34794  1.0000
  C   C110      1.0  0.09280  0.74393  0.34960  1.0000
  N   N19       1.0  0.11163  0.74945  0.42425  1.0000
  C   C111      1.0  0.14044  0.74827  0.42953  1.0000
  C   C112      1.0  0.15687  0.75523  0.51121  1.0000
  O   O31       1.0  0.14184  0.75365  0.58009  1.0000
  H   H58       1.0  0.17440  0.74895  0.51860  1.0000
  C   C113      1.0  0.25934  0.91038  0.34817  1.0000
  C   C114      1.0  0.26043  0.84974  0.34967  1.0000
  N   N20       1.0  0.25497  0.86306  0.42441  1.0000
  C   C115      1.0  0.25616  0.89305  0.42977  1.0000
  C   C116      1.0  0.24938  0.90262  0.51152  1.0000
  O   O32       1.0  0.25082  0.88907  0.58033  1.0000
  H   H59       1.0  0.25587  0.92649  0.51897  1.0000
  C   C117      1.0  0.09412  0.84977  0.34784  1.0000
  C   C118      1.0  0.15478  0.91165  0.35009  1.0000
  N   N21       1.0  0.14143  0.89261  0.42443  1.0000
  C   C119      1.0  0.11144  0.86379  0.42963  1.0000
  C   C120      1.0  0.10192  0.84724  0.51126  1.0000
  O   O33       1.0  0.11457  0.86318  0.57963  1.0000
  C   C121      1.0  0.35066  0.75829  0.34790  1.0000
  C   C122      1.0  0.41252  0.75959  0.34952  1.0000
  N   N22       1.0  0.39354  0.75376  0.42409  1.0000
  C   C123      1.0  0.36470  0.75488  0.42954  1.0000
  C   C124      1.0  0.34817  0.74766  0.51126  1.0000
  O   O34       1.0  0.36351  0.74940  0.57961  1.0000
  H   H60       1.0  0.33104  0.75448  0.51824  1.0000
  C   C125      1.0  0.24604  0.59315  0.34812  1.0000
  C   C126      1.0  0.24480  0.65380  0.34920  1.0000
  N   N23       1.0  0.25041  0.64055  0.42392  1.0000
  C   C127      1.0  0.24926  0.61059  0.42954  1.0000
  C   C128      1.0  0.25632  0.60127  0.51128  1.0000
  O   O35       1.0  0.25481  0.61481  0.58003  1.0000
  H   H61       1.0  0.25007  0.57747  0.51894  1.0000
  C   C129      1.0  0.41125  0.65375  0.34840  1.0000
  C   C130      1.0  0.35067  0.59197  0.34971  1.0000
  N   N24       1.0  0.36385  0.61072  0.42454  1.0000
  C   C131      1.0  0.39381  0.63955  0.42987  1.0000
  C   C132      1.0  0.40332  0.65593  0.51160  1.0000
  O   O36       1.0  0.38975  0.64095  0.58041  1.0000
  H   H62       1.0  0.42716  0.67336  0.51910  1.0000
  C   C133      1.0  0.98450  0.24254  0.31899  1.0000
  C   C134      1.0  0.93009  0.18897  0.33680  1.0000
  C   C135      1.0  0.96447  0.20660  0.31293  1.0000
  C   C136      1.0  0.52081  0.26096  0.31887  1.0000
  C   C137      1.0  0.54084  0.29690  0.31268  1.0000
  C   C138      1.0  0.57521  0.31453  0.33654  1.0000
  O   O37       1.0  0.97634  0.18680  0.28163  1.0000
  O   O38       1.0  0.52896  0.31670  0.28138  1.0000
  H   H63       1.0  0.48007  0.19129  0.21709  1.0000
  H   H64       1.0  0.87105  0.18673  0.29486  1.0000
  H   H65       1.0  0.63426  0.31689  0.29427  1.0000
  C   C139      1.0  0.76186  0.24284  0.31920  1.0000
  C   C140      1.0  0.81542  0.24198  0.33673  1.0000
  C   C141      1.0  0.79780  0.25874  0.31293  1.0000
  C   C142      1.0  0.74343  0.26072  0.31908  1.0000
  C   C143      1.0  0.70750  0.24481  0.31266  1.0000
  C   C144      1.0  0.68985  0.26155  0.33628  1.0000
  O   O39       1.0  0.81760  0.29043  0.28178  1.0000
  O   O40       1.0  0.68773  0.21313  0.28138  1.0000
  H   H66       1.0  0.81310  0.28972  0.21726  1.0000
  H   H67       1.0  0.69229  0.21388  0.21688  1.0000
  H   H68       1.0  0.81771  0.18529  0.29380  1.0000
  H   H69       1.0  0.68752  0.31831  0.29448  1.0000
  C   C145      1.0  0.76165  0.01995  0.31891  1.0000
  C   C146      1.0  0.76245  0.07433  0.33651  1.0000
  C   C147      1.0  0.74572  0.03996  0.31265  1.0000
  C   C148      1.0  0.74377  0.48364  0.31909  1.0000
  C   C149      1.0  0.75969  0.46362  0.31291  1.0000
  C   C150      1.0  0.74296  0.42925  0.33684  1.0000
  O   O41       1.0  0.71405  0.02806  0.28136  1.0000
  O   O42       1.0  0.79134  0.47551  0.28148  1.0000
  H   H70       1.0  0.71480  0.52426  0.21685  1.0000
  H   H71       1.0  0.79055  0.97923  0.21695  1.0000
  H   H72       1.0  0.81919  0.13344  0.29482  1.0000
  H   H73       1.0  0.68614  0.37017  0.29519  1.0000
  N   N25       1.0  0.63659  0.24101  0.27208  1.0000
  C   C151      1.0  0.60579  0.23818  0.27012  1.0000
  H   H74       1.0  0.59583  0.23841  0.20922  1.0000
  N   N26       1.0  0.76344  0.39654  0.27218  1.0000
  C   C152      1.0  0.76613  0.36849  0.27022  1.0000
  H   H75       1.0  0.76599  0.35841  0.20919  1.0000
  N   N27       1.0  0.60789  0.36802  0.27226  1.0000
  C   C153      1.0  0.63593  0.39875  0.27073  1.0000
  H   H76       1.0  0.64594  0.40906  0.20993  1.0000
  N   N28       1.0  0.86891  0.26294  0.27220  1.0000
  C   C154      1.0  0.89965  0.26567  0.27040  1.0000
  H   H77       1.0  0.90996  0.26604  0.20954  1.0000
  N   N29       1.0  0.74177  0.10692  0.27219  1.0000
  C   C155      1.0  0.73892  0.13487  0.27004  1.0000
  H   H78       1.0  0.73909  0.14499  0.20907  1.0000
  N   N30       1.0  0.89742  0.13573  0.27243  1.0000
  C   C156      1.0  0.86942  0.10497  0.27031  1.0000
  H   H79       1.0  0.85936  0.09502  0.20927  1.0000
  C   C157      1.0  0.96575  0.25920  0.33323  1.0000
  C   C158      1.0  0.93074  0.24250  0.34412  1.0000
  C   C159      1.0  0.91340  0.20730  0.34926  1.0000
  H   H80       1.0  0.97729  0.28426  0.34318  1.0000
  O   O43       1.0  0.87938  0.19057  0.35676  1.0000
  C   C160      1.0  0.59192  0.29620  0.34874  1.0000
  C   C161      1.0  0.57458  0.26100  0.34357  1.0000
  C   C162      1.0  0.53955  0.24429  0.33309  1.0000
  O   O44       1.0  0.62594  0.31290  0.35618  1.0000
  H   H81       1.0  0.52801  0.21926  0.34352  1.0000
  C   C163      1.0  0.74518  0.20742  0.33343  1.0000
  C   C164      1.0  0.76188  0.18909  0.34372  1.0000
  C   C165      1.0  0.79708  0.20693  0.34871  1.0000
  H   H82       1.0  0.72014  0.19394  0.34359  1.0000
  O   O45       1.0  0.81378  0.18960  0.35579  1.0000
  C   C166      1.0  0.70817  0.29658  0.34871  1.0000
  C   C167      1.0  0.74337  0.31445  0.34357  1.0000
  C   C168      1.0  0.76009  0.29614  0.33334  1.0000
  O   O46       1.0  0.69144  0.31387  0.35635  1.0000
  H   H83       1.0  0.78512  0.30963  0.34361  1.0000
  C   C169      1.0  0.79707  0.03871  0.33309  1.0000
  C   C170      1.0  0.81536  0.07373  0.34374  1.0000
  C   C171      1.0  0.79748  0.09105  0.34899  1.0000
  H   H84       1.0  0.81056  0.02717  0.34346  1.0000
  O   O47       1.0  0.81476  0.12507  0.35667  1.0000
  C   C172      1.0  0.70794  0.41255  0.34942  1.0000
  C   C173      1.0  0.69007  0.42988  0.34420  1.0000
  C   C174      1.0  0.70836  0.46489  0.33345  1.0000
  O   O48       1.0  0.69065  0.37853  0.35705  1.0000
  H   H85       1.0  0.69486  0.47644  0.34348  1.0000
  C   C175      1.0  0.65463  0.24515  0.34794  1.0000
  C   C176      1.0  0.59280  0.24393  0.34960  1.0000
  N   N31       1.0  0.61163  0.24945  0.42425  1.0000
  C   C177      1.0  0.64044  0.24827  0.42953  1.0000
  C   C178      1.0  0.65687  0.25523  0.51121  1.0000
  O   O49       1.0  0.64184  0.25365  0.58009  1.0000
  H   H86       1.0  0.67440  0.24895  0.51860  1.0000
  C   C179      1.0  0.75934  0.41038  0.34817  1.0000
  C   C180      1.0  0.76043  0.34974  0.34967  1.0000
  N   N32       1.0  0.75497  0.36306  0.42441  1.0000
  C   C181      1.0  0.75616  0.39305  0.42977  1.0000
  C   C182      1.0  0.74938  0.40262  0.51152  1.0000
  O   O50       1.0  0.75082  0.38907  0.58033  1.0000
  H   H87       1.0  0.75587  0.42649  0.51897  1.0000
  C   C183      1.0  0.59412  0.34976  0.34784  1.0000
  C   C184      1.0  0.65478  0.41165  0.35009  1.0000
  N   N33       1.0  0.64143  0.39261  0.42443  1.0000
  C   C185      1.0  0.61144  0.36379  0.42963  1.0000
  C   C186      1.0  0.60192  0.34724  0.51126  1.0000
  O   O51       1.0  0.61456  0.36318  0.57963  1.0000
  H   H88       1.0  0.57819  0.32958  0.51820  1.0000
  C   C187      1.0  0.85066  0.25829  0.34790  1.0000
  C   C188      1.0  0.91252  0.25959  0.34952  1.0000
  N   N34       1.0  0.89354  0.25376  0.42409  1.0000
  C   C189      1.0  0.86470  0.25488  0.42954  1.0000
  C   C190      1.0  0.84817  0.24766  0.51126  1.0000
  O   O52       1.0  0.86351  0.24940  0.57961  1.0000
  H   H89       1.0  0.83104  0.25448  0.51824  1.0000
  C   C191      1.0  0.74604  0.09315  0.34812  1.0000
  C   C192      1.0  0.74480  0.15380  0.34920  1.0000
  N   N35       1.0  0.75041  0.14055  0.42392  1.0000
  C   C193      1.0  0.74926  0.11059  0.42954  1.0000
  C   C194      1.0  0.75632  0.10127  0.51128  1.0000
  O   O53       1.0  0.75481  0.11481  0.58003  1.0000
  H   H90       1.0  0.75007  0.07747  0.51894  1.0000
  C   C195      1.0  0.91125  0.15374  0.34840  1.0000
  C   C196      1.0  0.85066  0.09197  0.34971  1.0000
  N   N36       1.0  0.86385  0.11071  0.42454  1.0000
  C   C197      1.0  0.89381  0.13955  0.42987  1.0000
  C   C198      1.0  0.90331  0.15593  0.51160  1.0000
  O   O54       1.0  0.88975  0.14095  0.58042  1.0000
  H   H91       1.0  0.92716  0.17336  0.51910  1.0000
  C   C199      1.0  0.98450  0.74254  0.31899  1.0000
  C   C200      1.0  0.93010  0.68897  0.33680  1.0000
  C   C201      1.0  0.96447  0.70660  0.31293  1.0000
  C   C202      1.0  0.52081  0.76096  0.31887  1.0000
  C   C203      1.0  0.54084  0.79690  0.31268  1.0000
  C   C204      1.0  0.57521  0.81453  0.33654  1.0000
  O   O55       1.0  0.97634  0.68680  0.28163  1.0000
  O   O56       1.0  0.52896  0.81670  0.28138  1.0000
  H   H92       1.0  0.48007  0.69129  0.21709  1.0000
  H   H93       1.0  0.87105  0.68673  0.29486  1.0000
  H   H94       1.0  0.63426  0.81690  0.29427  1.0000
  C   C205      1.0  0.76186  0.74284  0.31920  1.0000
  C   C206      1.0  0.81542  0.74199  0.33673  1.0000
  C   C207      1.0  0.79780  0.75874  0.31293  1.0000
  C   C208      1.0  0.74344  0.76073  0.31908  1.0000
  C   C209      1.0  0.70750  0.74481  0.31266  1.0000
  C   C210      1.0  0.68985  0.76155  0.33628  1.0000
  O   O57       1.0  0.81760  0.79043  0.28178  1.0000
  O   O58       1.0  0.68773  0.71313  0.28138  1.0000
  H   H95       1.0  0.81310  0.78972  0.21726  1.0000
  H   H96       1.0  0.69229  0.71388  0.21688  1.0000
  H   H97       1.0  0.81771  0.68529  0.29380  1.0000
  H   H98       1.0  0.68752  0.81831  0.29448  1.0000
  C   C211      1.0  0.76165  0.51995  0.31891  1.0000
  C   C212      1.0  0.76245  0.57434  0.33651  1.0000
  C   C213      1.0  0.74573  0.53996  0.31265  1.0000
  C   C214      1.0  0.74377  0.98364  0.31909  1.0000
  C   C215      1.0  0.75969  0.96362  0.31291  1.0000
  C   C216      1.0  0.74296  0.92925  0.33684  1.0000
  O   O59       1.0  0.71405  0.52806  0.28136  1.0000
  O   O60       1.0  0.79134  0.97550  0.28148  1.0000
  H   H99       1.0  0.71480  0.02426  0.21685  1.0000
  H   H100      1.0  0.79055  0.47923  0.21695  1.0000
  H   H101      1.0  0.81920  0.63344  0.29482  1.0000
  H   H102      1.0  0.68615  0.87017  0.29519  1.0000
  N   N37       1.0  0.63659  0.74101  0.27208  1.0000
  C   C217      1.0  0.60579  0.73818  0.27012  1.0000
  H   H103      1.0  0.59583  0.73841  0.20922  1.0000
  N   N38       1.0  0.76344  0.89654  0.27218  1.0000
  C   C218      1.0  0.76613  0.86849  0.27022  1.0000
  H   H104      1.0  0.76599  0.85841  0.20919  1.0000
  N   N39       1.0  0.60789  0.86802  0.27226  1.0000
  C   C219      1.0  0.63593  0.89875  0.27073  1.0000
  H   H105      1.0  0.64594  0.90906  0.20993  1.0000
  N   N40       1.0  0.86891  0.76294  0.27220  1.0000
  C   C220      1.0  0.89966  0.76567  0.27040  1.0000
  H   H106      1.0  0.90996  0.76604  0.20954  1.0000
  N   N41       1.0  0.74177  0.60692  0.27219  1.0000
  C   C221      1.0  0.73892  0.63487  0.27004  1.0000
  H   H107      1.0  0.73909  0.64499  0.20907  1.0000
  N   N42       1.0  0.89742  0.63573  0.27243  1.0000
  C   C222      1.0  0.86941  0.60497  0.27031  1.0000
  H   H108      1.0  0.85936  0.59502  0.20927  1.0000
  C   C223      1.0  0.96575  0.75921  0.33323  1.0000
  C   C224      1.0  0.93074  0.74250  0.34412  1.0000
  C   C225      1.0  0.91340  0.70730  0.34926  1.0000
  H   H109      1.0  0.97729  0.78426  0.34318  1.0000
  O   O61       1.0  0.87938  0.69057  0.35676  1.0000
  C   C226      1.0  0.59192  0.79620  0.34874  1.0000
  C   C227      1.0  0.57458  0.76100  0.34357  1.0000
  C   C228      1.0  0.53955  0.74429  0.33309  1.0000
  O   O62       1.0  0.62594  0.81290  0.35618  1.0000
  H   H110      1.0  0.52801  0.71926  0.34352  1.0000
  C   C229      1.0  0.74518  0.70743  0.33343  1.0000
  C   C230      1.0  0.76188  0.68909  0.34372  1.0000
  C   C231      1.0  0.79708  0.70693  0.34871  1.0000
  H   H111      1.0  0.72014  0.69394  0.34359  1.0000
  O   O63       1.0  0.81378  0.68960  0.35579  1.0000
  C   C232      1.0  0.70817  0.79658  0.34871  1.0000
  C   C233      1.0  0.74337  0.81445  0.34357  1.0000
  C   C234      1.0  0.76009  0.79614  0.33334  1.0000
  O   O64       1.0  0.69144  0.81387  0.35635  1.0000
  H   H112      1.0  0.78512  0.80963  0.34361  1.0000
  C   C235      1.0  0.79707  0.53871  0.33309  1.0000
  C   C236      1.0  0.81536  0.57373  0.34374  1.0000
  C   C237      1.0  0.79748  0.59105  0.34899  1.0000
  H   H113      1.0  0.81056  0.52717  0.34346  1.0000
  O   O65       1.0  0.81477  0.62506  0.35667  1.0000
  C   C238      1.0  0.70794  0.91255  0.34942  1.0000
  C   C239      1.0  0.69006  0.92988  0.34420  1.0000
  C   C240      1.0  0.70836  0.96489  0.33345  1.0000
  O   O66       1.0  0.69065  0.87853  0.35705  1.0000
  H   H114      1.0  0.69486  0.97644  0.34348  1.0000
  C   C241      1.0  0.65463  0.74515  0.34794  1.0000
  C   C242      1.0  0.59281  0.74393  0.34960  1.0000
  N   N43       1.0  0.61163  0.74945  0.42425  1.0000
  C   C243      1.0  0.64044  0.74827  0.42953  1.0000
  C   C244      1.0  0.65686  0.75523  0.51121  1.0000
  O   O67       1.0  0.64184  0.75365  0.58009  1.0000
  H   H115      1.0  0.67440  0.74895  0.51860  1.0000
  C   C245      1.0  0.75934  0.91038  0.34817  1.0000
  C   C246      1.0  0.76043  0.84974  0.34967  1.0000
  N   N44       1.0  0.75497  0.86306  0.42441  1.0000
  C   C247      1.0  0.75616  0.89305  0.42977  1.0000
  C   C248      1.0  0.74938  0.90262  0.51152  1.0000
  O   O68       1.0  0.75082  0.88907  0.58033  1.0000
  H   H116      1.0  0.75587  0.92649  0.51897  1.0000
  C   C249      1.0  0.59412  0.84977  0.34784  1.0000
  C   C250      1.0  0.65478  0.91165  0.35009  1.0000
  N   N45       1.0  0.64143  0.89261  0.42443  1.0000
  C   C251      1.0  0.61144  0.86379  0.42963  1.0000
  C   C252      1.0  0.60192  0.84724  0.51126  1.0000
  O   O69       1.0  0.61457  0.86318  0.57963  1.0000
  H   H117      1.0  0.57819  0.82958  0.51820  1.0000
  C   C253      1.0  0.85066  0.75829  0.34790  1.0000
  C   C254      1.0  0.91252  0.75959  0.34952  1.0000
  N   N46       1.0  0.89354  0.75376  0.42409  1.0000
  C   C255      1.0  0.86470  0.75488  0.42954  1.0000
  C   C256      1.0  0.84817  0.74766  0.51126  1.0000
  O   O70       1.0  0.86351  0.74940  0.57961  1.0000
  H   H118      1.0  0.83104  0.75448  0.51824  1.0000
  C   C257      1.0  0.74604  0.59315  0.34812  1.0000
  C   C258      1.0  0.74479  0.65380  0.34920  1.0000
  N   N47       1.0  0.75041  0.64055  0.42392  1.0000
  C   C259      1.0  0.74926  0.61059  0.42954  1.0000
  C   C260      1.0  0.75632  0.60127  0.51128  1.0000
  O   O71       1.0  0.75481  0.61481  0.58003  1.0000
  H   H119      1.0  0.75007  0.57747  0.51894  1.0000
  C   C261      1.0  0.91124  0.65375  0.34840  1.0000
  C   C262      1.0  0.85067  0.59197  0.34971  1.0000
  N   N48       1.0  0.86385  0.61072  0.42454  1.0000
  C   C263      1.0  0.89381  0.63955  0.42987  1.0000
  C   C264      1.0  0.90332  0.65593  0.51160  1.0000
  O   O72       1.0  0.88975  0.64095  0.58041  1.0000
  H   H120      1.0  0.92716  0.67336  0.51910  1.0000
