data_image0
_chemical_formula_structural       C3OHOHC2OHC4OHOHC4OHOHC2O2H2C2O2H2C2O2H2C2O2H2C2O2H2C2O2H2C24H15C24H15C24H15C24H15C24H15C24H15COHC2O2H2C2O2H2C4OHOHC4OHOHC4OHOHC4OHOHC4OHOHC4OHOH
_chemical_formula_sum              "C198 O36 H126"
_cell_length_a       61.5516
_cell_length_b       61.5516
_cell_length_c       14.9796
_cell_angle_alpha    90
_cell_angle_beta     90
_cell_angle_gamma    120

_space_group_name_H-M_alt    "P 1"
_space_group_IT_number       1

loop_
  _space_group_symop_operation_xyz
  'x, y, z'

loop_
  _atom_site_type_symbol
  _atom_site_label
  _atom_site_symmetry_multiplicity
  _atom_site_fract_x
  _atom_site_fract_y
  _atom_site_fract_z
  _atom_site_occupancy
  C   C1        1.0  0.01442  0.51212  0.26123  1.0000
  C   C2        1.0  0.01431  0.50397  0.42065  1.0000
  C   C3        1.0  0.02792  0.51468  0.34097  1.0000
  O   O1        1.0  0.02662  0.52268  0.18336  1.0000
  H   H1        1.0  0.03013  0.54012  0.18399  1.0000
  O   O2        1.0  0.02661  0.50509  0.49775  1.0000
  H   H2        1.0  0.02553  0.51746  0.53625  1.0000
  C   C4        1.0  0.97429  0.48762  0.34006  1.0000
  C   C5        1.0  0.98791  0.49841  0.26044  1.0000
  O   O3        1.0  0.97561  0.49725  0.18324  1.0000
  H   H3        1.0  0.97688  0.48503  0.14450  1.0000
  C   C6        1.0  0.51485  0.48744  0.34058  1.0000
  C   C7        1.0  0.51199  0.49813  0.26071  1.0000
  C   C8        1.0  0.49828  0.51092  0.26012  1.0000
  C   C9        1.0  0.48778  0.51401  0.34004  1.0000
  O   O4        1.0  0.49685  0.52183  0.18272  1.0000
  H   H4        1.0  0.48453  0.50822  0.14460  1.0000
  O   O5        1.0  0.52227  0.49625  0.18251  1.0000
  H   H5        1.0  0.53972  0.51019  0.18226  1.0000
  C   C10       1.0  0.51395  0.02730  0.34144  1.0000
  C   C11       1.0  0.50325  0.01381  0.26146  1.0000
  C   C12       1.0  0.49000  0.98732  0.26110  1.0000
  C   C13       1.0  0.48725  0.97367  0.34061  1.0000
  O   O6        1.0  0.47997  0.97530  0.18248  1.0000
  H   H6        1.0  0.46239  0.97136  0.18226  1.0000
  O   O7        1.0  0.50543  0.02600  0.18307  1.0000
  H   H7        1.0  0.49178  0.02993  0.18261  1.0000
  C   C14       1.0  0.24868  0.51885  0.27468  1.0000
  C   C15       1.0  0.27161  0.51886  0.27483  1.0000
  O   O8        1.0  0.23361  0.50959  0.20150  1.0000
  O   O9        1.0  0.27750  0.50961  0.20182  1.0000
  H   H8        1.0  0.21969  0.49303  0.21886  1.0000
  H   H9        1.0  0.27481  0.49304  0.21923  1.0000
  C   C16       1.0  0.48283  0.72990  0.26546  1.0000
  C   C17       1.0  0.48276  0.75280  0.26588  1.0000
  O   O10       1.0  0.49168  0.72394  0.19156  1.0000
  O   O11       1.0  0.49156  0.76776  0.19227  1.0000
  H   H10       1.0  0.50846  0.72691  0.20736  1.0000
  H   H11       1.0  0.50816  0.78177  0.20863  1.0000
  C   C18       1.0  0.27195  0.75286  0.25696  1.0000
  C   C19       1.0  0.24900  0.72994  0.25696  1.0000
  O   O12       1.0  0.27825  0.76751  0.18249  1.0000
  O   O13       1.0  0.23436  0.72366  0.18248  1.0000
  H   H12       1.0  0.27541  0.78147  0.19718  1.0000
  H   H13       1.0  0.22044  0.72655  0.19708  1.0000
  C   C20       1.0  0.75332  0.48199  0.25764  1.0000
  C   C21       1.0  0.73039  0.48200  0.25747  1.0000
  O   O14       1.0  0.76802  0.49035  0.18328  1.0000
  O   O15       1.0  0.72415  0.49040  0.18299  1.0000
  H   H14       1.0  0.78195  0.50716  0.19802  1.0000
  H   H15       1.0  0.72704  0.50721  0.19771  1.0000
  C   C22       1.0  0.51960  0.27127  0.26508  1.0000
  C   C23       1.0  0.51953  0.24830  0.26453  1.0000
  O   O16       1.0  0.51087  0.27749  0.19143  1.0000
  O   O17       1.0  0.51076  0.23356  0.19042  1.0000
  H   H16       1.0  0.49424  0.27487  0.20758  1.0000
  H   H17       1.0  0.49398  0.21972  0.20598  1.0000
  C   C24       1.0  0.73064  0.24822  0.27478  1.0000
  C   C25       1.0  0.75357  0.27114  0.27487  1.0000
  O   O18       1.0  0.72483  0.23310  0.20174  1.0000
  O   O19       1.0  0.76870  0.27698  0.20184  1.0000
  H   H18       1.0  0.72755  0.21924  0.21917  1.0000
  H   H19       1.0  0.78262  0.27437  0.21937  1.0000
  C   C26       1.0  0.17520  0.60802  0.32363  1.0000
  C   C27       1.0  0.14876  0.59446  0.33048  1.0000
  C   C28       1.0  0.13523  0.56789  0.33568  1.0000
  C   C29       1.0  0.14897  0.55502  0.33547  1.0000
  C   C30       1.0  0.17540  0.56800  0.32854  1.0000
  C   C31       1.0  0.18811  0.59445  0.32365  1.0000
  C   C32       1.0  0.10839  0.55440  0.33830  1.0000
  C   C33       1.0  0.09495  0.56232  0.39341  1.0000
  C   C34       1.0  0.06855  0.54925  0.39469  1.0000
  C   C35       1.0  0.05466  0.52782  0.34071  1.0000
  C   C36       1.0  0.06796  0.51982  0.28558  1.0000
  C   C37       1.0  0.09435  0.53288  0.28448  1.0000
  C   C38       1.0  0.18908  0.63470  0.31724  1.0000
  C   C39       1.0  0.18649  0.65000  0.38194  1.0000
  C   C40       1.0  0.20326  0.67609  0.38386  1.0000
  C   C41       1.0  0.22283  0.68760  0.32047  1.0000
  C   C42       1.0  0.22461  0.67245  0.25325  1.0000
  C   C43       1.0  0.20796  0.64645  0.25152  1.0000
  C   C44       1.0  0.18945  0.55533  0.32633  1.0000
  C   C45       1.0  0.20811  0.56159  0.26033  1.0000
  C   C46       1.0  0.22470  0.55219  0.26461  1.0000
  C   C47       1.0  0.22309  0.53610  0.33478  1.0000
  C   C48       1.0  0.20380  0.52897  0.39880  1.0000
  C   C49       1.0  0.18707  0.53830  0.39427  1.0000
  H   H20       1.0  0.20180  0.68647  0.43443  1.0000
  H   H21       1.0  0.17357  0.64208  0.43211  1.0000
  H   H22       1.0  0.23899  0.67995  0.20795  1.0000
  H   H23       1.0  0.21054  0.63598  0.20404  1.0000
  H   H24       1.0  0.21050  0.57394  0.21037  1.0000
  H   H25       1.0  0.23889  0.55841  0.21867  1.0000
  H   H26       1.0  0.17428  0.53393  0.44453  1.0000
  H   H27       1.0  0.20246  0.51773  0.45135  1.0000
  H   H28       1.0  0.10322  0.52674  0.24222  1.0000
  H   H29       1.0  0.05850  0.50434  0.24575  1.0000
  H   H30       1.0  0.05953  0.55572  0.43472  1.0000
  H   H31       1.0  0.10431  0.57762  0.43407  1.0000
  H   H32       1.0  0.13922  0.60412  0.32803  1.0000
  H   H33       1.0  0.20734  0.60411  0.32176  1.0000
  H   H34       1.0  0.13962  0.53585  0.33952  1.0000
  C   C50       1.0  0.39394  0.56779  0.33034  1.0000
  C   C51       1.0  0.40731  0.55472  0.33680  1.0000
  C   C52       1.0  0.43393  0.56751  0.33723  1.0000
  C   C53       1.0  0.44703  0.59410  0.33296  1.0000
  C   C54       1.0  0.43422  0.60773  0.32673  1.0000
  C   C55       1.0  0.40774  0.59424  0.32630  1.0000
  C   C56       1.0  0.44721  0.55394  0.33916  1.0000
  C   C57       1.0  0.43954  0.53238  0.28534  1.0000
  C   C58       1.0  0.45279  0.51924  0.28580  1.0000
  C   C59       1.0  0.47426  0.52724  0.33999  1.0000
  C   C60       1.0  0.48196  0.54868  0.39414  1.0000
  C   C61       1.0  0.46868  0.56180  0.39360  1.0000
  C   C62       1.0  0.36722  0.55519  0.32771  1.0000
  C   C63       1.0  0.35247  0.53810  0.39534  1.0000
  C   C64       1.0  0.32641  0.52881  0.39951  1.0000
  C   C65       1.0  0.31438  0.53609  0.33548  1.0000
  C   C66       1.0  0.32897  0.55226  0.26563  1.0000
  C   C67       1.0  0.35494  0.56159  0.26170  1.0000
  C   C68       1.0  0.44709  0.63443  0.32145  1.0000
  C   C69       1.0  0.44025  0.64642  0.25575  1.0000
  C   C70       1.0  0.44959  0.67241  0.25864  1.0000
  C   C71       1.0  0.46625  0.68730  0.32694  1.0000
  C   C72       1.0  0.47405  0.67556  0.39029  1.0000
  C   C73       1.0  0.46470  0.64947  0.38731  1.0000
  H   H35       1.0  0.31644  0.51755  0.45188  1.0000
  H   H36       1.0  0.36081  0.53363  0.44561  1.0000
  H   H37       1.0  0.32107  0.55857  0.21970  1.0000
  H   H38       1.0  0.36500  0.57402  0.21203  1.0000
  H   H39       1.0  0.42735  0.63613  0.20761  1.0000
  H   H40       1.0  0.44291  0.68010  0.21332  1.0000
  H   H41       1.0  0.46949  0.64134  0.43740  1.0000
  H   H42       1.0  0.48565  0.68573  0.44166  1.0000
  H   H43       1.0  0.47475  0.57708  0.43443  1.0000
  H   H44       1.0  0.49750  0.55507  0.43391  1.0000
  H   H45       1.0  0.44655  0.50367  0.24629  1.0000
  H   H46       1.0  0.42442  0.52624  0.24365  1.0000
  H   H47       1.0  0.39743  0.53554  0.34028  1.0000
  H   H48       1.0  0.39823  0.60396  0.32471  1.0000
  H   H49       1.0  0.46624  0.60373  0.33070  1.0000
  C   C74       1.0  0.43393  0.82616  0.32595  1.0000
  C   C75       1.0  0.44695  0.85259  0.33321  1.0000
  C   C76       1.0  0.43411  0.86635  0.33452  1.0000
  C   C77       1.0  0.40753  0.85286  0.33004  1.0000
  C   C78       1.0  0.39393  0.82643  0.32288  1.0000
  C   C79       1.0  0.40748  0.81349  0.32189  1.0000
  C   C80       1.0  0.44763  0.89319  0.33739  1.0000
  C   C81       1.0  0.46899  0.90726  0.28288  1.0000
  C   C82       1.0  0.48203  0.93365  0.28410  1.0000
  C   C83       1.0  0.47417  0.94692  0.34001  1.0000
  C   C84       1.0  0.45293  0.93299  0.39487  1.0000
  C   C85       1.0  0.43988  0.90659  0.39343  1.0000
  C   C86       1.0  0.44657  0.81208  0.32241  1.0000
  C   C87       1.0  0.46388  0.81447  0.38920  1.0000
  C   C88       1.0  0.47324  0.79773  0.39246  1.0000
  C   C89       1.0  0.46585  0.77845  0.32826  1.0000
  C   C90       1.0  0.44944  0.77683  0.25923  1.0000
  C   C91       1.0  0.44006  0.79344  0.25615  1.0000
  C   C92       1.0  0.36724  0.81258  0.31687  1.0000
  C   C93       1.0  0.35540  0.79378  0.25093  1.0000
  C   C94       1.0  0.32939  0.77719  0.25281  1.0000
  C   C95       1.0  0.31431  0.77895  0.32039  1.0000
  C   C96       1.0  0.32591  0.79848  0.38392  1.0000
  C   C97       1.0  0.35201  0.81515  0.38194  1.0000
  H   H50       1.0  0.48472  0.79910  0.44419  1.0000
  H   H51       1.0  0.46847  0.82726  0.43959  1.0000
  H   H52       1.0  0.44302  0.76264  0.21326  1.0000
  H   H53       1.0  0.42747  0.79103  0.20705  1.0000
  H   H54       1.0  0.36580  0.79118  0.20324  1.0000
  H   H55       1.0  0.32183  0.76281  0.20752  1.0000
  H   H56       1.0  0.36000  0.82809  0.43205  1.0000
  H   H57       1.0  0.31558  0.79995  0.43466  1.0000
  H   H58       1.0  0.42470  0.89721  0.43464  1.0000
  H   H59       1.0  0.44660  0.94199  0.43567  1.0000
  H   H60       1.0  0.49740  0.94313  0.24379  1.0000
  H   H61       1.0  0.47500  0.89842  0.24001  1.0000
  H   H62       1.0  0.46614  0.86192  0.33659  1.0000
  H   H63       1.0  0.39778  0.79426  0.31978  1.0000
  H   H64       1.0  0.39789  0.86243  0.32827  1.0000
  C   C98       1.0  0.82679  0.39353  0.32949  1.0000
  C   C99       1.0  0.85322  0.40698  0.33622  1.0000
  C   C100      1.0  0.86697  0.43359  0.33631  1.0000
  C   C101      1.0  0.85345  0.44664  0.33131  1.0000
  C   C102      1.0  0.82701  0.43376  0.32468  1.0000
  C   C103      1.0  0.81408  0.40727  0.32473  1.0000
  C   C104      1.0  0.89382  0.44692  0.33848  1.0000
  C   C105      1.0  0.90777  0.43938  0.28446  1.0000
  C   C106      1.0  0.93416  0.45269  0.28510  1.0000
  C   C107      1.0  0.94755  0.47407  0.33979  1.0000
  C   C108      1.0  0.93375  0.48163  0.39420  1.0000
  C   C109      1.0  0.90734  0.46831  0.39338  1.0000
  C   C110      1.0  0.81274  0.36682  0.32714  1.0000
  C   C111      1.0  0.81505  0.35215  0.39513  1.0000
  C   C112      1.0  0.79834  0.32607  0.39943  1.0000
  C   C113      1.0  0.77910  0.31394  0.33523  1.0000
  C   C114      1.0  0.77753  0.32846  0.26510  1.0000
  C   C115      1.0  0.79412  0.35445  0.26099  1.0000
  C   C116      1.0  0.81312  0.44656  0.31829  1.0000
  C   C117      1.0  0.79426  0.43944  0.25251  1.0000
  C   C118      1.0  0.77762  0.44880  0.25416  1.0000
  C   C119      1.0  0.77941  0.46575  0.32135  1.0000
  C   C120      1.0  0.79894  0.47378  0.38485  1.0000
  C   C121      1.0  0.81570  0.46444  0.38300  1.0000
  H   H65       1.0  0.79967  0.31615  0.45191  1.0000
  H   H66       1.0  0.82787  0.36055  0.44535  1.0000
  H   H67       1.0  0.76333  0.32052  0.21916  1.0000
  H   H68       1.0  0.79172  0.36444  0.21116  1.0000
  H   H69       1.0  0.79169  0.42641  0.20499  1.0000
  H   H70       1.0  0.76326  0.44195  0.20877  1.0000
  H   H71       1.0  0.82864  0.46947  0.43311  1.0000
  H   H72       1.0  0.80042  0.48565  0.43533  1.0000
  H   H73       1.0  0.89806  0.47428  0.43427  1.0000
  H   H74       1.0  0.94285  0.49710  0.43431  1.0000
  H   H75       1.0  0.94355  0.44656  0.24540  1.0000
  H   H76       1.0  0.89884  0.42433  0.24246  1.0000
  H   H77       1.0  0.86257  0.39715  0.34009  1.0000
  H   H78       1.0  0.79485  0.39772  0.32294  1.0000
  H   H79       1.0  0.86299  0.46584  0.32874  1.0000
  C   C122      1.0  0.60840  0.43371  0.32272  1.0000
  C   C123      1.0  0.59479  0.44653  0.32991  1.0000
  C   C124      1.0  0.56820  0.43344  0.33448  1.0000
  C   C125      1.0  0.55539  0.40683  0.33334  1.0000
  C   C126      1.0  0.56841  0.39343  0.32600  1.0000
  C   C127      1.0  0.59487  0.40722  0.32183  1.0000
  C   C128      1.0  0.55466  0.44675  0.33736  1.0000
  C   C129      1.0  0.56261  0.46814  0.39233  1.0000
  C   C130      1.0  0.54952  0.48146  0.39378  1.0000
  C   C131      1.0  0.52800  0.47384  0.34018  1.0000
  C   C132      1.0  0.51996  0.45250  0.28527  1.0000
  C   C133      1.0  0.53306  0.43921  0.28389  1.0000
  C   C134      1.0  0.63509  0.44656  0.31678  1.0000
  C   C135      1.0  0.65030  0.46433  0.38195  1.0000
  C   C136      1.0  0.67640  0.47371  0.38412  1.0000
  C   C137      1.0  0.68801  0.46579  0.32064  1.0000
  C   C138      1.0  0.67294  0.44894  0.25307  1.0000
  C   C139      1.0  0.64695  0.43958  0.25094  1.0000
  C   C140      1.0  0.55578  0.36671  0.32236  1.0000
  C   C141      1.0  0.56232  0.35461  0.25608  1.0000
  C   C142      1.0  0.55293  0.32862  0.25900  1.0000
  C   C143      1.0  0.53648  0.31379  0.32786  1.0000
  C   C144      1.0  0.52904  0.32565  0.39204  1.0000
  C   C145      1.0  0.53846  0.35175  0.38907  1.0000
  H   H80       1.0  0.68672  0.48552  0.43485  1.0000
  H   H81       1.0  0.64231  0.46929  0.43200  1.0000
  H   H82       1.0  0.68051  0.44214  0.20771  1.0000
  H   H83       1.0  0.63655  0.42659  0.20320  1.0000
  H   H84       1.0  0.57490  0.36480  0.20696  1.0000
  H   H85       1.0  0.55934  0.32085  0.21292  1.0000
  H   H86       1.0  0.53382  0.35994  0.43939  1.0000
  H   H87       1.0  0.51755  0.31552  0.44373  1.0000
  H   H88       1.0  0.52689  0.42419  0.24170  1.0000
  H   H89       1.0  0.50442  0.44642  0.24571  1.0000
  H   H90       1.0  0.55604  0.49699  0.43364  1.0000
  H   H91       1.0  0.57796  0.47414  0.43280  1.0000
  H   H92       1.0  0.60442  0.46573  0.32787  1.0000
  H   H93       1.0  0.60457  0.39770  0.31971  1.0000
  H   H94       1.0  0.53621  0.39696  0.33687  1.0000
  C   C146      1.0  0.56803  0.17463  0.32554  1.0000
  C   C147      1.0  0.55517  0.14820  0.33212  1.0000
  C   C148      1.0  0.56821  0.13465  0.33651  1.0000
  C   C149      1.0  0.59482  0.14841  0.33585  1.0000
  C   C150      1.0  0.60826  0.17484  0.32910  1.0000
  C   C151      1.0  0.59452  0.18756  0.32492  1.0000
  C   C152      1.0  0.55485  0.10780  0.33905  1.0000
  C   C153      1.0  0.53342  0.09436  0.39384  1.0000
  C   C154      1.0  0.52004  0.06796  0.39495  1.0000
  C   C155      1.0  0.52763  0.05405  0.34125  1.0000
  C   C156      1.0  0.54902  0.06735  0.28653  1.0000
  C   C157      1.0  0.56237  0.09374  0.28548  1.0000
  C   C158      1.0  0.55522  0.18851  0.32042  1.0000
  C   C159      1.0  0.53758  0.18592  0.38619  1.0000
  C   C160      1.0  0.52823  0.20266  0.38926  1.0000
  C   C161      1.0  0.53605  0.22223  0.32603  1.0000
  C   C162      1.0  0.55278  0.22407  0.25788  1.0000
  C   C163      1.0  0.56215  0.20744  0.25502  1.0000
  C   C164      1.0  0.63498  0.18890  0.32663  1.0000
  C   C165      1.0  0.64732  0.20758  0.26067  1.0000
  C   C166      1.0  0.67330  0.22421  0.26484  1.0000
  C   C167      1.0  0.68782  0.22263  0.33493  1.0000
  C   C168      1.0  0.67573  0.20333  0.39895  1.0000
  C   C169      1.0  0.64966  0.18657  0.39453  1.0000
  H   H95       1.0  0.51653  0.20115  0.44040  1.0000
  H   H96       1.0  0.53268  0.17291  0.43601  1.0000
  H   H97       1.0  0.55949  0.23847  0.21267  1.0000
  H   H98       1.0  0.57503  0.21004  0.20683  1.0000
  H   H99       1.0  0.63731  0.20997  0.21086  1.0000
  H   H100      1.0  0.68123  0.23842  0.21896  1.0000
  H   H101      1.0  0.64127  0.17373  0.44469  1.0000
  H   H102      1.0  0.68565  0.20200  0.45140  1.0000
  H   H103      1.0  0.57743  0.10260  0.24344  1.0000
  H   H104      1.0  0.55509  0.05789  0.24692  1.0000
  H   H105      1.0  0.50448  0.05894  0.43467  1.0000
  H   H106      1.0  0.52743  0.10370  0.43437  1.0000
  H   H107      1.0  0.53597  0.13867  0.32995  1.0000
  H   H108      1.0  0.60408  0.20679  0.32327  1.0000
  H   H109      1.0  0.60466  0.13906  0.33948  1.0000
  C   C170      1.0  0.98779  0.49026  0.41986  1.0000
  O   O20       1.0  0.97557  0.47964  0.49763  1.0000
  H   H110      1.0  0.97218  0.46223  0.49700  1.0000
  C   C171      1.0  0.49071  0.50339  0.41997  1.0000
  C   C172      1.0  0.50442  0.49059  0.42056  1.0000
  O   O21       1.0  0.48037  0.50522  0.49808  1.0000
  O   O22       1.0  0.50580  0.47964  0.49789  1.0000
  H   H111      1.0  0.46295  0.49125  0.49829  1.0000
  H   H112      1.0  0.51826  0.49321  0.53578  1.0000
  C   C173      1.0  0.49792  0.98716  0.42057  1.0000
  C   C174      1.0  0.51072  0.01368  0.42136  1.0000
  O   O23       1.0  0.49626  0.97495  0.49842  1.0000
  O   O24       1.0  0.52174  0.02597  0.49869  1.0000
  H   H113      1.0  0.51031  0.97162  0.49817  1.0000
  H   H114      1.0  0.50820  0.02484  0.53679  1.0000
  C   C175      1.0  0.28902  0.53033  0.34549  1.0000
  C   C176      1.0  0.28217  0.54007  0.41926  1.0000
  C   C177      1.0  0.25920  0.54006  0.41907  1.0000
  C   C178      1.0  0.24267  0.53032  0.34514  1.0000
  O   O25       1.0  0.25510  0.55285  0.48507  1.0000
  H   H115      1.0  0.24813  0.54121  0.53578  1.0000
  O   O26       1.0  0.29900  0.55284  0.48543  1.0000
  H   H116      1.0  0.29428  0.54118  0.53610  1.0000
  C   C179      1.0  0.47167  0.75886  0.33749  1.0000
  C   C180      1.0  0.46241  0.74244  0.41185  1.0000
  C   C181      1.0  0.46251  0.71953  0.41147  1.0000
  C   C182      1.0  0.47188  0.71262  0.33678  1.0000
  O   O27       1.0  0.45021  0.70279  0.47839  1.0000
  H   H117      1.0  0.46217  0.70767  0.52817  1.0000
  O   O28       1.0  0.44997  0.74659  0.47905  1.0000
  H   H118      1.0  0.46188  0.75357  0.52903  1.0000
  C   C183      1.0  0.24251  0.71296  0.32938  1.0000
  C   C184      1.0  0.25863  0.72024  0.40461  1.0000
  C   C185      1.0  0.28162  0.74319  0.40460  1.0000
  C   C186      1.0  0.28893  0.75931  0.32936  1.0000
  O   O29       1.0  0.29805  0.74769  0.47268  1.0000
  H   H119      1.0  0.29295  0.75481  0.52168  1.0000
  O   O30       1.0  0.25411  0.70381  0.47271  1.0000
  H   H120      1.0  0.24695  0.70890  0.52163  1.0000
  C   C187      1.0  0.71337  0.47146  0.32975  1.0000
  C   C188      1.0  0.72061  0.46261  0.40506  1.0000
  C   C189      1.0  0.74357  0.46261  0.40523  1.0000
  C   C190      1.0  0.75973  0.47145  0.33010  1.0000
  O   O31       1.0  0.74806  0.45068  0.47337  1.0000
  H   H121      1.0  0.75519  0.46292  0.52233  1.0000
  O   O32       1.0  0.70413  0.45069  0.47304  1.0000
  H   H122      1.0  0.70924  0.46290  0.52207  1.0000
  C   C191      1.0  0.53041  0.24190  0.33590  1.0000
  C   C192      1.0  0.53968  0.25811  0.41080  1.0000
  C   C193      1.0  0.53979  0.28114  0.41129  1.0000
  C   C194      1.0  0.53061  0.28837  0.33690  1.0000
  O   O33       1.0  0.55217  0.29766  0.47871  1.0000
  H   H123      1.0  0.54022  0.29271  0.52855  1.0000
  O   O34       1.0  0.55195  0.25365  0.47781  1.0000
  H   H124      1.0  0.53993  0.24649  0.52740  1.0000
  C   C195      1.0  0.75951  0.28859  0.34539  1.0000
  C   C196      1.0  0.74292  0.28177  0.41915  1.0000
  C   C197      1.0  0.71995  0.25880  0.41905  1.0000
  C   C198      1.0  0.71316  0.24224  0.34525  1.0000
  O   O35       1.0  0.70306  0.25469  0.48505  1.0000
  H   H125      1.0  0.70776  0.24776  0.53580  1.0000
  O   O36       1.0  0.74697  0.29863  0.48520  1.0000
  H   H126      1.0  0.75390  0.29393  0.53597  1.0000
