data_image0
_chemical_formula_structural       C4NOCHC4NOCHC2NOCHC2NOCHC4NOCHC4NOCHC2NOCHC2NOCHC4NOCHC4NOCHC4NOCHC4NOCHC2NOCHC2NOCHC4NOCHC4NOCHC2NOCHC2NOCHC4NOCHC4NOCHC2NOCHC2NOCHC4NOCHC4NOCHCNCNCNCNCNCNCNCNCNCNCNCNCNCNCNCNCNCNCNCNCNCNCNCNCNCNCNCNCNCNCNCNCNCNCNCNCNCNCNCNCNCNCNCNCNCNCNCNC2NOCHC2NOCHC4NOCHC4NOCHC2NOCHC2NOCHC4NOCHC4NOCHC2NOCHC2NOCHC2NOCHC2NOCHC4NOCHC4NOCHC2NOCHC2NOCHC4NOCHC4NOCHC2NOCHC2NOCHC4NOCHC4NOCHC2NOCHC2NOCH
_chemical_formula_sum              "C240 N96 O48 H48"
_cell_length_a       44.3524
_cell_length_b       34.779
_cell_length_c       14.8664
_cell_angle_alpha    90
_cell_angle_beta     90
_cell_angle_gamma    90

_space_group_name_H-M_alt    "P 1"
_space_group_IT_number       1

loop_
  _space_group_symop_operation_xyz
  'x, y, z'

loop_
  _atom_site_type_symbol
  _atom_site_label
  _atom_site_symmetry_multiplicity
  _atom_site_fract_x
  _atom_site_fract_y
  _atom_site_fract_z
  _atom_site_occupancy
  C   C1        1.0  0.00459  0.96203  0.33215  1.0000
  C   C2        1.0  0.97843  0.98422  0.31324  1.0000
  C   C3        1.0  0.97865  0.02471  0.31307  1.0000
  C   C4        1.0  0.00466  0.04718  0.33161  1.0000
  N   N1        1.0  0.95079  0.03592  0.29220  1.0000
  O   O1        1.0  0.95054  0.97030  0.29256  1.0000
  C   C5        1.0  0.93476  0.00364  0.28055  1.0000
  H   H1        1.0  0.91242  0.00393  0.26372  1.0000
  C   C6        1.0  0.50464  0.46180  0.33198  1.0000
  C   C7        1.0  0.47842  0.48395  0.31369  1.0000
  C   C8        1.0  0.47859  0.52444  0.31361  1.0000
  C   C9        1.0  0.50463  0.54695  0.33158  1.0000
  N   N2        1.0  0.45066  0.53563  0.29347  1.0000
  O   O2        1.0  0.45048  0.47001  0.29369  1.0000
  C   C10       1.0  0.43464  0.50332  0.28217  1.0000
  H   H2        1.0  0.41225  0.50359  0.26585  1.0000
  C   C11       1.0  0.08771  0.15847  0.31985  1.0000
  C   C12       1.0  0.11332  0.18255  0.32099  1.0000
  N   N3        1.0  0.13587  0.16264  0.28466  1.0000
  O   O3        1.0  0.09424  0.12367  0.28266  1.0000
  C   C13       1.0  0.12425  0.12813  0.26393  1.0000
  H   H3        1.0  0.13668  0.10714  0.23322  1.0000
  C   C14       1.0  0.92135  0.85054  0.31645  1.0000
  C   C15       1.0  0.89571  0.82647  0.31683  1.0000
  N   N4        1.0  0.87333  0.84634  0.27956  1.0000
  O   O4        1.0  0.91494  0.88535  0.27917  1.0000
  C   C16       1.0  0.88503  0.88085  0.25920  1.0000
  H   H4        1.0  0.87273  0.90184  0.22801  1.0000
  C   C17       1.0  0.89583  0.22081  0.34256  1.0000
  C   C18       1.0  0.89538  0.18230  0.31098  1.0000
  C   C19       1.0  0.92132  0.15878  0.31181  1.0000
  C   C20       1.0  0.94979  0.17101  0.34508  1.0000
  N   N5        1.0  0.91359  0.12569  0.27319  1.0000
  O   O5        1.0  0.87164  0.16412  0.27152  1.0000
  C   C21       1.0  0.88438  0.12934  0.25122  1.0000
  H   H5        1.0  0.87270  0.10803  0.21913  1.0000
  C   C22       1.0  0.11298  0.78841  0.35473  1.0000
  C   C23       1.0  0.11353  0.82655  0.32060  1.0000
  C   C24       1.0  0.08768  0.85023  0.31984  1.0000
  C   C25       1.0  0.05913  0.83848  0.35331  1.0000
  N   N6        1.0  0.09556  0.88288  0.27946  1.0000
  O   O6        1.0  0.13737  0.84424  0.28048  1.0000
  C   C26       1.0  0.12482  0.87892  0.25839  1.0000
  H   H6        1.0  0.13656  0.89973  0.22473  1.0000
  C   C27       1.0  0.58766  0.65798  0.31971  1.0000
  C   C28       1.0  0.61330  0.68202  0.32004  1.0000
  N   N7        1.0  0.63578  0.66192  0.28393  1.0000
  O   O7        1.0  0.59412  0.62301  0.28327  1.0000
  C   C29       1.0  0.62411  0.62733  0.26419  1.0000
  H   H7        1.0  0.63648  0.60620  0.23377  1.0000
  C   C30       1.0  0.42139  0.35062  0.31642  1.0000
  C   C31       1.0  0.39573  0.32661  0.31613  1.0000
  N   N8        1.0  0.37339  0.34670  0.27924  1.0000
  O   O8        1.0  0.41505  0.38561  0.27999  1.0000
  C   C32       1.0  0.38513  0.38129  0.25985  1.0000
  H   H8        1.0  0.37288  0.40243  0.22906  1.0000
  C   C33       1.0  0.39578  0.72064  0.34502  1.0000
  C   C34       1.0  0.39529  0.68230  0.31225  1.0000
  C   C35       1.0  0.42123  0.65876  0.31225  1.0000
  C   C36       1.0  0.44972  0.67077  0.34579  1.0000
  N   N9        1.0  0.41344  0.62587  0.27278  1.0000
  O   O9        1.0  0.37150  0.66434  0.27253  1.0000
  C   C37       1.0  0.38421  0.62967  0.25112  1.0000
  H   H9        1.0  0.37248  0.60852  0.21860  1.0000
  C   C38       1.0  0.61292  0.28799  0.35614  1.0000
  C   C39       1.0  0.61355  0.32593  0.32088  1.0000
  C   C40       1.0  0.58774  0.34968  0.31940  1.0000
  C   C41       1.0  0.55917  0.33819  0.35329  1.0000
  N   N10       1.0  0.59569  0.38209  0.27814  1.0000
  O   O10       1.0  0.63744  0.34334  0.28036  1.0000
  C   C42       1.0  0.62494  0.37792  0.25720  1.0000
  H   H10       1.0  0.63674  0.39854  0.22308  1.0000
  C   C43       1.0  0.38159  0.07586  0.31130  1.0000
  C   C44       1.0  0.39795  0.10537  0.26683  1.0000
  C   C45       1.0  0.38977  0.14392  0.27422  1.0000
  C   C46       1.0  0.36425  0.15577  0.32351  1.0000
  N   N11       1.0  0.41007  0.16439  0.22869  1.0000
  O   O11       1.0  0.42346  0.10135  0.21642  1.0000
  C   C47       1.0  0.42964  0.13875  0.19536  1.0000
  H   H11       1.0  0.44782  0.14657  0.15731  1.0000
  C   C48       1.0  0.62639  0.93285  0.32745  1.0000
  C   C49       1.0  0.60946  0.90351  0.28392  1.0000
  C   C50       1.0  0.61800  0.86499  0.28807  1.0000
  C   C51       1.0  0.64435  0.85294  0.33299  1.0000
  N   N12       1.0  0.59711  0.84467  0.24453  1.0000
  O   O12       1.0  0.58296  0.90752  0.23793  1.0000
  C   C52       1.0  0.57676  0.87029  0.21563  1.0000
  H   H12       1.0  0.55802  0.86256  0.18002  1.0000
  C   C53       1.0  0.66227  0.12557  0.32349  1.0000
  C   C54       1.0  0.65343  0.08694  0.32785  1.0000
  N   N13       1.0  0.67253  0.06702  0.27685  1.0000
  O   O13       1.0  0.68711  0.13003  0.27053  1.0000
  C   C55       1.0  0.69235  0.09282  0.24517  1.0000
  H   H13       1.0  0.70951  0.08540  0.20267  1.0000
  C   C56       1.0  0.39131  0.86450  0.28456  1.0000
  C   C57       1.0  0.39966  0.90307  0.27941  1.0000
  N   N14       1.0  0.42541  0.90423  0.23315  1.0000
  O   O14       1.0  0.41143  0.84129  0.24134  1.0000
  C   C58       1.0  0.43185  0.86774  0.21156  1.0000
  H   H14       1.0  0.45062  0.86030  0.17570  1.0000
  C   C59       1.0  0.88156  0.57591  0.31466  1.0000
  C   C60       1.0  0.89758  0.60567  0.27009  1.0000
  C   C61       1.0  0.88936  0.64416  0.27893  1.0000
  C   C62       1.0  0.86417  0.65575  0.33013  1.0000
  N   N15       1.0  0.90935  0.66487  0.23273  1.0000
  O   O15       1.0  0.92278  0.60194  0.21821  1.0000
  C   C63       1.0  0.92876  0.63944  0.19769  1.0000
  H   H15       1.0  0.94669  0.64748  0.15885  1.0000
  C   C64       1.0  0.12657  0.43316  0.33112  1.0000
  C   C65       1.0  0.10998  0.40362  0.28726  1.0000
  C   C66       1.0  0.11852  0.36514  0.29294  1.0000
  C   C67       1.0  0.14450  0.35328  0.34012  1.0000
  N   N16       1.0  0.09799  0.34466  0.24834  1.0000
  O   O16       1.0  0.08386  0.40747  0.23937  1.0000
  C   C68       1.0  0.07786  0.37014  0.21745  1.0000
  H   H16       1.0  0.05941  0.36225  0.18070  1.0000
  C   C69       1.0  0.16191  0.62592  0.31598  1.0000
  C   C70       1.0  0.15313  0.58730  0.32172  1.0000
  N   N17       1.0  0.17156  0.56724  0.26887  1.0000
  O   O17       1.0  0.18599  0.63021  0.25997  1.0000
  C   C71       1.0  0.19097  0.59295  0.23468  1.0000
  H   H17       1.0  0.20756  0.58545  0.19031  1.0000
  C   C72       1.0  0.89151  0.36473  0.27866  1.0000
  C   C73       1.0  0.89994  0.40331  0.27531  1.0000
  N   N18       1.0  0.92587  0.40467  0.22991  1.0000
  O   O18       1.0  0.91174  0.34173  0.23535  1.0000
  C   C74       1.0  0.93230  0.36831  0.20711  1.0000
  H   H18       1.0  0.95119  0.36105  0.17161  1.0000
  C   C75       1.0  0.53666  0.00488  0.35289  1.0000
  C   C76       1.0  0.52070  0.03778  0.32393  1.0000
  C   C77       1.0  0.48934  0.03782  0.32124  1.0000
  C   C78       1.0  0.47207  0.00558  0.34802  1.0000
  N   N19       1.0  0.48114  0.07165  0.28700  1.0000
  O   O19       1.0  0.53243  0.07125  0.29121  1.0000
  C   C79       1.0  0.50672  0.09095  0.27093  1.0000
  H   H19       1.0  0.50697  0.11772  0.24263  1.0000
  C   C80       1.0  0.03677  0.50527  0.35183  1.0000
  C   C81       1.0  0.02076  0.53787  0.32131  1.0000
  C   C82       1.0  0.98940  0.53776  0.31833  1.0000
  C   C83       1.0  0.97219  0.50571  0.34657  1.0000
  N   N20       1.0  0.98113  0.57130  0.28276  1.0000
  O   O20       1.0  0.03243  0.57118  0.28748  1.0000
  C   C84       1.0  0.00667  0.59052  0.26577  1.0000
  H   H20       1.0  0.00687  0.61727  0.23734  1.0000
  C   C85       1.0  0.26607  0.22068  0.31003  1.0000
  C   C86       1.0  0.23483  0.22577  0.31706  1.0000
  N   N21       1.0  0.22169  0.19491  0.28136  1.0000
  O   O21       1.0  0.27250  0.18625  0.27019  1.0000
  C   C87       1.0  0.24428  0.17198  0.25490  1.0000
  H   H21       1.0  0.24067  0.14606  0.22437  1.0000
  C   C88       1.0  0.74265  0.78826  0.31085  1.0000
  C   C89       1.0  0.77393  0.78322  0.31636  1.0000
  N   N22       1.0  0.78683  0.81424  0.28062  1.0000
  O   O22       1.0  0.73596  0.82277  0.27183  1.0000
  C   C90       1.0  0.76407  0.83717  0.25552  1.0000
  H   H22       1.0  0.76748  0.86320  0.22529  1.0000
  C   C91       1.0  0.78704  0.25971  0.33066  1.0000
  C   C92       1.0  0.76598  0.28816  0.30204  1.0000
  C   C93       1.0  0.73474  0.28273  0.30826  1.0000
  C   C94       1.0  0.72177  0.24876  0.34287  1.0000
  N   N23       1.0  0.72152  0.31396  0.27464  1.0000
  O   O23       1.0  0.77233  0.32306  0.26452  1.0000
  C   C95       1.0  0.74406  0.33735  0.25001  1.0000
  H   H23       1.0  0.74039  0.36356  0.22094  1.0000
  C   C96       1.0  0.22159  0.74982  0.33116  1.0000
  C   C97       1.0  0.24237  0.72134  0.30113  1.0000
  C   C98       1.0  0.27367  0.72636  0.30684  1.0000
  C   C99       1.0  0.28695  0.75992  0.34256  1.0000
  N   N24       1.0  0.28655  0.69518  0.27178  1.0000
  O   O24       1.0  0.23564  0.68678  0.26270  1.0000
  C   C100      1.0  0.26375  0.67226  0.24677  1.0000
  H   H24       1.0  0.26714  0.64609  0.21719  1.0000
  C   C101      1.0  0.97712  0.14852  0.34180  1.0000
  N   N25       1.0  0.97810  0.10933  0.33553  1.0000
  C   C102      1.0  0.00449  0.08874  0.33401  1.0000
  N   N26       1.0  0.03076  0.10948  0.33833  1.0000
  C   C103      1.0  0.03161  0.14865  0.34435  1.0000
  N   N27       1.0  0.00433  0.16659  0.34597  1.0000
  C   C104      1.0  0.03180  0.86080  0.34739  1.0000
  N   N28       1.0  0.03085  0.89993  0.34044  1.0000
  C   C105      1.0  0.00451  0.92049  0.33542  1.0000
  N   N29       1.0  0.97819  0.89975  0.33705  1.0000
  C   C106      1.0  0.97731  0.86057  0.34400  1.0000
  N   N30       1.0  0.00458  0.84269  0.34895  1.0000
  C   C107      1.0  0.47705  0.64828  0.34207  1.0000
  N   N31       1.0  0.47802  0.60909  0.33576  1.0000
  C   C108      1.0  0.50442  0.58851  0.33403  1.0000
  N   N32       1.0  0.53069  0.60926  0.33815  1.0000
  C   C109      1.0  0.53155  0.64842  0.34419  1.0000
  N   N33       1.0  0.50426  0.66635  0.34603  1.0000
  C   C110      1.0  0.53187  0.36056  0.34706  1.0000
  N   N34       1.0  0.53095  0.39969  0.34017  1.0000
  C   C111      1.0  0.50461  0.42026  0.33516  1.0000
  N   N35       1.0  0.47828  0.39952  0.33675  1.0000
  C   C112      1.0  0.47738  0.36035  0.34362  1.0000
  N   N36       1.0  0.50465  0.34246  0.34857  1.0000
  C   C113      1.0  0.39475  0.97063  0.32606  1.0000
  N   N37       1.0  0.37918  0.00449  0.31914  1.0000
  C   C114      1.0  0.39430  0.03880  0.32084  1.0000
  N   N38       1.0  0.42458  0.03819  0.33232  1.0000
  C   C115      1.0  0.44047  0.00547  0.34144  1.0000
  N   N39       1.0  0.42499  0.97227  0.33740  1.0000
  C   C116      1.0  0.61464  0.03776  0.36465  1.0000
  N   N40       1.0  0.62970  0.00383  0.35101  1.0000
  C   C117      1.0  0.61411  0.97016  0.33889  1.0000
  N   N41       1.0  0.58364  0.97157  0.34198  1.0000
  C   C118      1.0  0.56816  0.00435  0.35351  1.0000
  N   N42       1.0  0.58415  0.03681  0.36369  1.0000
  C   C119      1.0  0.89493  0.47061  0.32409  1.0000
  N   N43       1.0  0.87928  0.50448  0.31913  1.0000
  C   C120      1.0  0.89435  0.53883  0.32221  1.0000
  N   N44       1.0  0.92465  0.53826  0.33303  1.0000
  C   C121      1.0  0.94060  0.50549  0.34026  1.0000
  N   N45       1.0  0.92519  0.47227  0.33500  1.0000
  C   C122      1.0  0.11475  0.53831  0.36262  1.0000
  N   N46       1.0  0.12984  0.50428  0.35103  1.0000
  C   C123      1.0  0.11425  0.47054  0.34040  1.0000
  N   N47       1.0  0.08378  0.47196  0.34302  1.0000
  C   C124      1.0  0.06829  0.50485  0.35277  1.0000
  N   N48       1.0  0.08426  0.53744  0.36151  1.0000
  C   C125      1.0  0.13777  0.24753  0.34930  1.0000
  N   N49       1.0  0.16783  0.23812  0.35150  1.0000
  C   C126      1.0  0.19002  0.26579  0.35316  1.0000
  N   N50       1.0  0.18123  0.30307  0.35010  1.0000
  C   C127      1.0  0.15215  0.31395  0.34620  1.0000
  N   N51       1.0  0.13113  0.28571  0.34558  1.0000
  C   C128      1.0  0.87119  0.76143  0.34436  1.0000
  N   N52       1.0  0.84115  0.77085  0.34838  1.0000
  C   C129      1.0  0.81897  0.74318  0.34975  1.0000
  N   N53       1.0  0.82771  0.70594  0.34457  1.0000
  C   C130      1.0  0.85676  0.69506  0.33886  1.0000
  N   N54       1.0  0.87783  0.72327  0.33855  1.0000
  C   C131      1.0  0.87107  0.24748  0.33621  1.0000
  N   N55       1.0  0.84095  0.23831  0.33485  1.0000
  C   C132      1.0  0.81887  0.26606  0.33024  1.0000
  N   N56       1.0  0.82790  0.30325  0.32826  1.0000
  C   C133      1.0  0.85706  0.31393  0.32856  1.0000
  N   N57       1.0  0.87797  0.28558  0.33195  1.0000
  C   C134      1.0  0.13772  0.76156  0.34928  1.0000
  N   N58       1.0  0.16766  0.77086  0.33991  1.0000
  C   C135      1.0  0.18980  0.74325  0.33406  1.0000
  N   N59       1.0  0.18108  0.70599  0.33926  1.0000
  C   C136      1.0  0.15213  0.69504  0.34847  1.0000
  N   N60       1.0  0.13115  0.72333  0.35362  1.0000
  C   C137      1.0  0.63776  0.74721  0.34495  1.0000
  N   N61       1.0  0.66788  0.73793  0.34414  1.0000
  C   C138      1.0  0.69001  0.76565  0.34004  1.0000
  N   N62       1.0  0.68103  0.80282  0.33821  1.0000
  C   C139      1.0  0.65194  0.81362  0.33798  1.0000
  N   N63       1.0  0.63097  0.78535  0.34063  1.0000
  C   C140      1.0  0.37119  0.26139  0.34036  1.0000
  N   N64       1.0  0.34108  0.27073  0.34139  1.0000
  C   C141      1.0  0.31890  0.24309  0.33711  1.0000
  N   N65       1.0  0.32784  0.20594  0.33321  1.0000
  C   C142      1.0  0.35691  0.19509  0.33116  1.0000
  N   N66       1.0  0.37796  0.22327  0.33399  1.0000
  C   C143      1.0  0.37095  0.74730  0.34082  1.0000
  N   N67       1.0  0.34081  0.73820  0.34189  1.0000
  C   C144      1.0  0.31879  0.76609  0.34256  1.0000
  N   N68       1.0  0.32785  0.80329  0.33983  1.0000
  C   C145      1.0  0.35703  0.81389  0.33703  1.0000
  N   N69       1.0  0.37787  0.78542  0.33733  1.0000
  C   C146      1.0  0.63770  0.26112  0.35266  1.0000
  N   N70       1.0  0.66776  0.27032  0.34620  1.0000
  C   C147      1.0  0.68991  0.24260  0.34571  1.0000
  N   N71       1.0  0.68095  0.20544  0.34952  1.0000
  C   C148      1.0  0.65191  0.19458  0.35507  1.0000
  N   N72       1.0  0.63095  0.22293  0.35728  1.0000
  C   C149      1.0  0.03089  0.02499  0.34977  1.0000
  C   C150      1.0  0.03065  0.98452  0.35013  1.0000
  N   N73       1.0  0.05840  0.97332  0.37234  1.0000
  O   O25       1.0  0.05868  0.03889  0.37175  1.0000
  C   C151      1.0  0.07443  0.00558  0.38417  1.0000
  H   H25       1.0  0.09666  0.00528  0.40226  1.0000
  C   C152      1.0  0.53093  0.52479  0.34905  1.0000
  C   C153      1.0  0.53073  0.48432  0.34940  1.0000
  N   N74       1.0  0.55857  0.47315  0.37072  1.0000
  O   O26       1.0  0.55879  0.53872  0.37026  1.0000
  C   C154      1.0  0.57460  0.50543  0.38214  1.0000
  H   H26       1.0  0.59689  0.50516  0.39953  1.0000
  C   C155      1.0  0.11278  0.22108  0.35227  1.0000
  C   C156      1.0  0.08423  0.23312  0.38524  1.0000
  C   C157      1.0  0.05879  0.20923  0.38377  1.0000
  C   C158      1.0  0.05890  0.17114  0.34955  1.0000
  N   N75       1.0  0.03643  0.22935  0.42056  1.0000
  O   O27       1.0  0.07765  0.26799  0.42272  1.0000
  C   C159      1.0  0.04785  0.26372  0.44221  1.0000
  H   H27       1.0  0.03542  0.28474  0.47268  1.0000
  C   C160      1.0  0.89615  0.78791  0.34801  1.0000
  C   C161      1.0  0.92456  0.77587  0.38192  1.0000
  C   C162      1.0  0.94999  0.79979  0.38151  1.0000
  C   C163      1.0  0.95003  0.83793  0.34743  1.0000
  N   N76       1.0  0.97219  0.77960  0.41892  1.0000
  O   O28       1.0  0.93096  0.74097  0.41946  1.0000
  C   C164      1.0  0.96066  0.74526  0.44026  1.0000
  H   H28       1.0  0.97302  0.72411  0.47048  1.0000
  C   C165      1.0  0.94966  0.20895  0.38041  1.0000
  C   C166      1.0  0.92401  0.23246  0.37877  1.0000
  N   N77       1.0  0.93179  0.26574  0.41686  1.0000
  O   O29       1.0  0.97319  0.22740  0.42040  1.0000
  C   C167      1.0  0.96077  0.26222  0.44021  1.0000
  H   H29       1.0  0.97248  0.28365  0.47161  1.0000
  C   C168      1.0  0.05911  0.80108  0.39145  1.0000
  C   C169      1.0  0.08473  0.77746  0.39176  1.0000
  N   N78       1.0  0.07671  0.74485  0.43226  1.0000
  O   O30       1.0  0.03544  0.78340  0.43259  1.0000
  C   C170      1.0  0.04772  0.74882  0.45511  1.0000
  H   H30       1.0  0.03592  0.72788  0.48798  1.0000
  C   C171      1.0  0.61283  0.72071  0.35027  1.0000
  C   C172      1.0  0.58432  0.73294  0.38319  1.0000
  C   C173      1.0  0.55883  0.70912  0.38230  1.0000
  C   C174      1.0  0.55887  0.67087  0.34906  1.0000
  N   N79       1.0  0.53646  0.72953  0.41811  1.0000
  O   O31       1.0  0.57775  0.76806  0.41938  1.0000
  C   C175      1.0  0.54793  0.76399  0.43883  1.0000
  H   H31       1.0  0.53549  0.78527  0.46817  1.0000
  C   C176      1.0  0.39610  0.28789  0.34618  1.0000
  C   C177      1.0  0.42449  0.27563  0.37986  1.0000
  C   C178      1.0  0.44998  0.29946  0.37990  1.0000
  C   C179      1.0  0.45007  0.33776  0.34682  1.0000
  N   N80       1.0  0.47221  0.27897  0.41623  1.0000
  O   O32       1.0  0.43090  0.24047  0.41608  1.0000
  C   C180      1.0  0.46063  0.24453  0.43664  1.0000
  H   H32       1.0  0.47301  0.22314  0.46580  1.0000
  C   C181      1.0  0.44964  0.70852  0.38220  1.0000
  C   C182      1.0  0.42400  0.73206  0.38139  1.0000
  N   N81       1.0  0.43179  0.76505  0.42077  1.0000
  O   O33       1.0  0.47317  0.72664  0.42299  1.0000
  C   C183      1.0  0.46078  0.76135  0.44398  1.0000
  H   H33       1.0  0.47248  0.78253  0.47632  1.0000
  C   C184      1.0  0.55907  0.30098  0.39241  1.0000
  C   C185      1.0  0.58464  0.27731  0.39343  1.0000
  N   N82       1.0  0.57659  0.24499  0.43516  1.0000
  O   O34       1.0  0.53539  0.28365  0.43432  1.0000
  C   C186      1.0  0.54761  0.24917  0.45792  1.0000
  H   H34       1.0  0.53580  0.22850  0.49167  1.0000
  C   C187      1.0  0.34661  0.12618  0.36281  1.0000
  C   C188      1.0  0.35547  0.08759  0.35813  1.0000
  N   N83       1.0  0.33648  0.06753  0.40917  1.0000
  O   O35       1.0  0.32189  0.13054  0.41633  1.0000
  C   C189      1.0  0.31662  0.09324  0.44106  1.0000
  H   H35       1.0  0.29977  0.08580  0.48462  1.0000
  C   C190      1.0  0.66234  0.88231  0.37173  1.0000
  C   C191      1.0  0.65330  0.92087  0.36984  1.0000
  N   N84       1.0  0.67300  0.94058  0.41922  1.0000
  O   O36       1.0  0.68791  0.87766  0.42139  1.0000
  C   C192      1.0  0.69342  0.91475  0.44720  1.0000
  H   H36       1.0  0.71089  0.92193  0.48875  1.0000
  C   C193      1.0  0.62719  0.07506  0.37396  1.0000
  C   C194      1.0  0.61091  0.10454  0.41904  1.0000
  C   C195      1.0  0.61920  0.14309  0.41239  1.0000
  C   C196      1.0  0.64465  0.15515  0.36303  1.0000
  N   N85       1.0  0.59898  0.16339  0.45854  1.0000
  O   O37       1.0  0.58515  0.10057  0.46865  1.0000
  C   C197      1.0  0.57922  0.13784  0.49106  1.0000
  H   H37       1.0  0.56101  0.14566  0.52898  1.0000
  C   C198      1.0  0.38270  0.93308  0.31987  1.0000
  C   C199      1.0  0.35589  0.92193  0.36392  1.0000
  C   C200      1.0  0.34753  0.88317  0.36923  1.0000
  C   C201      1.0  0.36496  0.85316  0.33082  1.0000
  N   N86       1.0  0.32277  0.88178  0.41971  1.0000
  O   O38       1.0  0.33688  0.94492  0.41169  1.0000
  C   C202      1.0  0.31658  0.91831  0.44212  1.0000
  H   H38       1.0  0.29905  0.92544  0.48351  1.0000
  C   C203      1.0  0.84698  0.62589  0.37012  1.0000
  C   C204      1.0  0.85582  0.58734  0.36368  1.0000
  N   N87       1.0  0.83729  0.56695  0.41549  1.0000
  O   O39       1.0  0.82281  0.62987  0.42592  1.0000
  C   C205      1.0  0.81768  0.59244  0.44964  1.0000
  H   H39       1.0  0.80126  0.58476  0.49438  1.0000
  C   C206      1.0  0.16205  0.38286  0.37983  1.0000
  C   C207      1.0  0.15306  0.42142  0.37606  1.0000
  N   N88       1.0  0.17229  0.44142  0.42648  1.0000
  O   O40       1.0  0.18703  0.37851  0.43214  1.0000
  C   C208      1.0  0.19241  0.41574  0.45698  1.0000
  H   H40       1.0  0.20943  0.42311  0.49999  1.0000
  C   C209      1.0  0.12744  0.57554  0.37067  1.0000
  C   C210      1.0  0.11159  0.60512  0.41664  1.0000
  C   C211      1.0  0.11989  0.64363  0.40900  1.0000
  C   C212      1.0  0.14486  0.65561  0.35724  1.0000
  N   N89       1.0  0.10013  0.66399  0.45677  1.0000
  O   O41       1.0  0.08630  0.60120  0.46829  1.0000
  C   C213      1.0  0.08065  0.63850  0.49107  1.0000
  H   H41       1.0  0.06281  0.64640  0.53040  1.0000
  C   C214      1.0  0.88289  0.43308  0.31638  1.0000
  C   C215      1.0  0.85576  0.42173  0.35845  1.0000
  C   C216      1.0  0.84726  0.38297  0.36173  1.0000
  C   C217      1.0  0.86493  0.35320  0.32332  1.0000
  N   N90       1.0  0.82210  0.38126  0.41048  1.0000
  O   O42       1.0  0.83646  0.44441  0.40600  1.0000
  C   C218      1.0  0.81588  0.41766  0.43401  1.0000
  H   H42       1.0  0.79808  0.42457  0.47457  1.0000
  C   C219      1.0  0.48815  0.97276  0.37756  1.0000
  C   C220      1.0  0.51953  0.97260  0.37957  1.0000
  N   N91       1.0  0.52807  0.93835  0.41063  1.0000
  O   O43       1.0  0.47669  0.93861  0.40717  1.0000
  C   C221      1.0  0.50253  0.91884  0.42600  1.0000
  H   H43       1.0  0.50239  0.89144  0.45084  1.0000
  C   C222      1.0  0.98831  0.47316  0.37745  1.0000
  C   C223      1.0  0.01969  0.47313  0.37967  1.0000
  N   N92       1.0  0.02825  0.43917  0.41242  1.0000
  O   O44       1.0  0.97686  0.43925  0.40858  1.0000
  C   C224      1.0  0.00273  0.41971  0.42844  1.0000
  H   H44       1.0  0.00262  0.39254  0.45468  1.0000
  C   C225      1.0  0.22180  0.25934  0.35349  1.0000
  C   C226      1.0  0.24275  0.28771  0.38305  1.0000
  C   C227      1.0  0.27400  0.28264  0.37599  1.0000
  C   C228      1.0  0.28705  0.24915  0.33923  1.0000
  N   N93       1.0  0.28708  0.31370  0.41095  1.0000
  O   O45       1.0  0.23625  0.32213  0.42254  1.0000
  C   C229      1.0  0.26445  0.33659  0.43731  1.0000
  H   H45       1.0  0.26800  0.36262  0.46738  1.0000
  C   C230      1.0  0.78719  0.74960  0.35179  1.0000
  C   C231      1.0  0.76644  0.72109  0.38183  1.0000
  C   C232      1.0  0.73516  0.72608  0.37617  1.0000
  C   C233      1.0  0.72188  0.75964  0.34054  1.0000
  N   N94       1.0  0.72231  0.69489  0.41125  1.0000
  O   O46       1.0  0.77320  0.68658  0.42049  1.0000
  C   C234      1.0  0.74511  0.67197  0.43616  1.0000
  H   H46       1.0  0.74175  0.64591  0.46628  1.0000
  C   C235      1.0  0.74284  0.22029  0.37137  1.0000
  C   C236      1.0  0.77407  0.22575  0.36537  1.0000
  N   N95       1.0  0.78728  0.19469  0.39989  1.0000
  O   O47       1.0  0.73652  0.18557  0.40994  1.0000
  C   C237      1.0  0.76477  0.17132  0.42475  1.0000
  H   H47       1.0  0.76845  0.14533  0.45488  1.0000
  C   C238      1.0  0.26617  0.78843  0.37241  1.0000
  C   C239      1.0  0.23488  0.78341  0.36676  1.0000
  N   N96       1.0  0.22203  0.81432  0.40316  1.0000
  O   O48       1.0  0.27290  0.82273  0.41214  1.0000
  C   C240      1.0  0.24481  0.83722  0.42833  1.0000
  H   H48       1.0  0.24144  0.86298  0.45984  1.0000
