data_image0
_chemical_formula_structural       C3NHC3H2C3NHC3H6CNCNH2C3NCH2C3NCHCNCNH2C3NCH2C3NCHC2NH4CHC3H4C2NH4CHC3H4C3NH3C4NH2C6N2H2CNHCNHCNHCNHC3H2C3H2C2HC3H2C3NCH3C3NCH3C3NCH3C3NCH3C3NH3C4NH2C6N2H2CNHCNHCNHCNHC3H2C3H2C2HC3H2C3NCH3C3NCH3C3NCH3C3NCH3C6N2H3C6N2H4C6N2H4CNHCNHCNHCNHCNHCNHC3H2C3H2C3H2C3H2C3H2C3H2C3NCH3C3NCH3C3NCH3C3NCH3C3NCH3C3NCH3C6N2H3C6N2H4C6N2H4CNHCNHCNHCNHCNHCNHC3H2C3H2C3H2C3H2C3H2C3H2C3NCH3C3NCH3C3NCH3C3NCH3C3NCH3C3NCH3
_chemical_formula_sum              "C264 N72 H192"
_cell_length_a       45.8691
_cell_length_b       45.8691
_cell_length_c       14.8619
_cell_angle_alpha    90
_cell_angle_beta     90
_cell_angle_gamma    120

_space_group_name_H-M_alt    "P 1"
_space_group_IT_number       1

loop_
  _space_group_symop_operation_xyz
  'x, y, z'

loop_
  _atom_site_type_symbol
  _atom_site_label
  _atom_site_symmetry_multiplicity
  _atom_site_fract_x
  _atom_site_fract_y
  _atom_site_fract_z
  _atom_site_occupancy
  C   C1        1.0  0.02528  0.26371  0.29673  1.0000
  C   C2        1.0  0.04599  0.29999  0.29066  1.0000
  C   C3        1.0  0.07769  0.31726  0.33676  1.0000
  N   N1        1.0  0.03585  0.31798  0.23962  1.0000
  H   H1        1.0  0.04909  0.34225  0.23393  1.0000
  C   C4        1.0  0.09159  0.29754  0.36691  1.0000
  C   C5        1.0  0.07640  0.26273  0.35131  1.0000
  C   C6        1.0  0.04301  0.24636  0.31924  1.0000
  H   H2        1.0  0.03079  0.22085  0.32494  1.0000
  H   H3        1.0  0.08683  0.26121  0.53385  1.0000
  C   C7        1.0  0.02528  0.76371  0.29673  1.0000
  C   C8        1.0  0.04599  0.79999  0.29066  1.0000
  C   C9        1.0  0.07769  0.81726  0.33676  1.0000
  N   N2        1.0  0.03585  0.81798  0.23962  1.0000
  H   H4        1.0  0.04909  0.84225  0.23393  1.0000
  C   C10       1.0  0.09159  0.79754  0.36691  1.0000
  C   C11       1.0  0.07640  0.76273  0.35131  1.0000
  C   C12       1.0  0.04301  0.74636  0.31924  1.0000
  H   H5        1.0  0.03079  0.72084  0.32494  1.0000
  H   H6        1.0  0.08683  0.76121  0.53385  1.0000
  H   H7        1.0  0.01736  0.30663  0.19720  1.0000
  H   H8        1.0  0.01736  0.80663  0.19720  1.0000
  H   H9        1.0  0.09259  0.23200  0.22588  1.0000
  H   H10       1.0  0.09259  0.73200  0.22588  1.0000
  C   C13       1.0  0.10572  0.23603  0.28453  1.0000
  N   N3        1.0  0.13683  0.23897  0.27843  1.0000
  C   C14       1.0  0.13960  0.40579  0.28388  1.0000
  N   N4        1.0  0.11136  0.37476  0.27772  1.0000
  H   H11       1.0  0.14862  0.41908  0.22539  1.0000
  H   H12       1.0  0.11613  0.30964  0.38849  1.0000
  C   C15       1.0  0.11811  0.25474  0.43793  1.0000
  C   C16       1.0  0.09620  0.24700  0.36293  1.0000
  C   C17       1.0  0.15895  0.24934  0.34841  1.0000
  N   N5        1.0  0.14821  0.25646  0.42633  1.0000
  C   C18       1.0  0.11189  0.26416  0.52824  1.0000
  H   H13       1.0  0.13059  0.29030  0.54280  1.0000
  H   H14       1.0  0.11394  0.24803  0.57884  1.0000
  C   C19       1.0  0.14591  0.39339  0.43712  1.0000
  C   C20       1.0  0.16011  0.41535  0.36218  1.0000
  C   C21       1.0  0.09956  0.35260  0.34760  1.0000
  N   N6        1.0  0.11751  0.36331  0.42544  1.0000
  C   C22       1.0  0.16152  0.39950  0.52747  1.0000
  H   H15       1.0  0.14332  0.39739  0.57809  1.0000
  C   C23       1.0  0.10573  0.73604  0.28453  1.0000
  N   N7        1.0  0.13683  0.73897  0.27843  1.0000
  C   C24       1.0  0.13960  0.90579  0.28388  1.0000
  N   N8        1.0  0.11136  0.87476  0.27772  1.0000
  H   H16       1.0  0.14862  0.91908  0.22539  1.0000
  H   H17       1.0  0.11613  0.80964  0.38849  1.0000
  C   C25       1.0  0.11811  0.75474  0.43793  1.0000
  C   C26       1.0  0.09620  0.74700  0.36293  1.0000
  C   C27       1.0  0.15895  0.74933  0.34841  1.0000
  N   N9        1.0  0.14821  0.75646  0.42633  1.0000
  C   C28       1.0  0.11189  0.76416  0.52824  1.0000
  H   H18       1.0  0.13059  0.79030  0.54280  1.0000
  H   H19       1.0  0.11394  0.74803  0.57884  1.0000
  C   C29       1.0  0.14591  0.89339  0.43712  1.0000
  C   C30       1.0  0.16011  0.91535  0.36218  1.0000
  C   C31       1.0  0.09956  0.85260  0.34760  1.0000
  N   N10       1.0  0.11751  0.86331  0.42544  1.0000
  C   C32       1.0  0.16152  0.89950  0.52747  1.0000
  H   H20       1.0  0.14332  0.89739  0.57809  1.0000
  C   C33       1.0  0.21154  0.24830  0.29139  1.0000
  C   C34       1.0  0.19428  0.26274  0.33745  1.0000
  N   N11       1.0  0.19353  0.22015  0.24043  1.0000
  H   H21       1.0  0.16926  0.20913  0.23477  1.0000
  H   H22       1.0  0.20486  0.21299  0.19801  1.0000
  H   H23       1.0  0.21547  0.51511  0.19736  1.0000
  H   H24       1.0  0.21160  0.04688  0.23384  1.0000
  C   C35       1.0  0.21401  0.29638  0.36749  1.0000
  H   H25       1.0  0.20191  0.30884  0.38891  1.0000
  C   C36       1.0  0.21524  0.41992  0.36652  1.0000
  C   C37       1.0  0.19566  0.43516  0.35104  1.0000
  C   C38       1.0  0.21274  0.46862  0.31955  1.0000
  H   H26       1.0  0.20279  0.39532  0.38765  1.0000
  H   H27       1.0  0.19941  0.48082  0.32483  1.0000
  H   H28       1.0  0.18362  0.42454  0.53328  1.0000
  H   H29       1.0  0.16895  0.38078  0.54182  1.0000
  C   C39       1.0  0.21154  0.74830  0.29139  1.0000
  C   C40       1.0  0.19428  0.76274  0.33745  1.0000
  N   N12       1.0  0.19353  0.72015  0.24043  1.0000
  H   H30       1.0  0.16926  0.70913  0.23477  1.0000
  H   H31       1.0  0.20486  0.71299  0.19801  1.0000
  H   H32       1.0  0.21547  0.01512  0.19736  1.0000
  H   H33       1.0  0.21160  0.54688  0.23384  1.0000
  C   C41       1.0  0.21401  0.79638  0.36749  1.0000
  H   H34       1.0  0.20191  0.80884  0.38891  1.0000
  C   C42       1.0  0.21524  0.91992  0.36652  1.0000
  C   C43       1.0  0.19566  0.93516  0.35104  1.0000
  C   C44       1.0  0.21274  0.96862  0.31955  1.0000
  H   H35       1.0  0.20279  0.89533  0.38765  1.0000
  H   H36       1.0  0.19941  0.98082  0.32483  1.0000
  H   H37       1.0  0.18362  0.92454  0.53328  1.0000
  H   H38       1.0  0.16894  0.88078  0.54182  1.0000
  C   C45       1.0  0.48863  0.24550  0.29684  1.0000
  C   C46       1.0  0.43613  0.19198  0.33666  1.0000
  C   C47       1.0  0.46788  0.20922  0.29078  1.0000
  N   N13       1.0  0.47808  0.19120  0.24003  1.0000
  H   H39       1.0  0.99646  0.20257  0.19734  1.0000
  H   H40       1.0  0.46462  0.16697  0.23385  1.0000
  H   H41       1.0  0.51736  0.30663  0.19720  1.0000
  C   C48       1.0  0.26606  0.24545  0.29748  1.0000
  C   C49       1.0  0.31962  0.24653  0.33696  1.0000
  C   C50       1.0  0.30233  0.26100  0.29113  1.0000
  C   C51       1.0  0.24782  0.26386  0.29745  1.0000
  N   N14       1.0  0.32030  0.28917  0.24021  1.0000
  H   H42       1.0  0.30889  0.29614  0.19755  1.0000
  H   H43       1.0  0.34453  0.29993  0.23384  1.0000
  C   C52       1.0  0.26623  0.02301  0.29697  1.0000
  C   C53       1.0  0.26512  0.07544  0.33682  1.0000
  C   C54       1.0  0.25066  0.04371  0.29087  1.0000
  C   C55       1.0  0.24782  0.48636  0.29711  1.0000
  C   C56       1.0  0.26339  0.46565  0.29085  1.0000
  C   C57       1.0  0.24889  0.43386  0.33653  1.0000
  N   N15       1.0  0.22249  0.03353  0.23999  1.0000
  N   N16       1.0  0.29160  0.47588  0.24007  1.0000
  H   H44       1.0  0.30234  0.46240  0.23358  1.0000
  H   H45       1.0  0.29854  0.99424  0.19735  1.0000
  C   C58       1.0  0.27559  0.37203  0.28415  1.0000
  N   N17       1.0  0.27279  0.40025  0.27782  1.0000
  H   H46       1.0  0.27978  0.36286  0.22583  1.0000
  C   C59       1.0  0.40817  0.27323  0.28418  1.0000
  N   N18       1.0  0.37708  0.27030  0.27800  1.0000
  H   H47       1.0  0.42131  0.27723  0.22553  1.0000
  C   C60       1.0  0.23841  0.13729  0.28440  1.0000
  N   N19       1.0  0.24121  0.10906  0.27811  1.0000
  H   H48       1.0  0.23413  0.14633  0.22595  1.0000
  C   C61       1.0  0.37434  0.10339  0.28418  1.0000
  N   N20       1.0  0.40249  0.13450  0.27798  1.0000
  H   H49       1.0  0.36518  0.09024  0.22558  1.0000
  C   C62       1.0  0.47090  0.26286  0.31930  1.0000
  C   C63       1.0  0.43750  0.24652  0.35120  1.0000
  C   C64       1.0  0.42229  0.21173  0.36708  1.0000
  H   H50       1.0  0.48310  0.28839  0.32459  1.0000
  H   H51       1.0  0.39772  0.19961  0.38843  1.0000
  C   C65       1.0  0.24871  0.21037  0.32002  1.0000
  C   C66       1.0  0.26507  0.19331  0.35174  1.0000
  C   C67       1.0  0.29991  0.21290  0.36702  1.0000
  H   H52       1.0  0.22318  0.19706  0.32532  1.0000
  H   H53       1.0  0.31204  0.20046  0.38837  1.0000
  C   C68       1.0  0.24881  0.31600  0.35177  1.0000
  C   C69       1.0  0.26517  0.29894  0.31990  1.0000
  H   H54       1.0  0.29071  0.31229  0.32497  1.0000
  C   C70       1.0  0.30133  0.04076  0.31930  1.0000
  C   C71       1.0  0.31835  0.07416  0.35132  1.0000
  C   C72       1.0  0.29872  0.08933  0.36712  1.0000
  H   H55       1.0  0.31465  0.02856  0.32497  1.0000
  H   H56       1.0  0.31118  0.11389  0.38851  1.0000
  C   C73       1.0  0.25682  0.36580  0.43749  1.0000
  C   C74       1.0  0.26453  0.35157  0.36252  1.0000
  C   C75       1.0  0.26243  0.41206  0.34767  1.0000
  N   N21       1.0  0.25519  0.39422  0.42568  1.0000
  C   C76       1.0  0.24742  0.35028  0.52797  1.0000
  H   H57       1.0  0.25035  0.32818  0.53385  1.0000
  H   H58       1.0  0.22129  0.34289  0.54253  1.0000
  H   H59       1.0  0.26358  0.36853  0.57840  1.0000
  C   C77       1.0  0.39578  0.25459  0.43755  1.0000
  C   C78       1.0  0.41772  0.26229  0.36259  1.0000
  C   C79       1.0  0.35495  0.25998  0.34796  1.0000
  N   N22       1.0  0.36569  0.25288  0.42592  1.0000
  C   C80       1.0  0.40200  0.24522  0.52795  1.0000
  H   H60       1.0  0.42705  0.24818  0.53364  1.0000
  H   H61       1.0  0.38330  0.21909  0.54258  1.0000
  H   H62       1.0  0.39994  0.26138  0.57844  1.0000
  C   C81       1.0  0.25712  0.14353  0.43761  1.0000
  C   C82       1.0  0.24935  0.15776  0.36276  1.0000
  C   C83       1.0  0.25158  0.09724  0.34790  1.0000
  N   N23       1.0  0.25882  0.11515  0.42580  1.0000
  C   C84       1.0  0.26665  0.15912  0.52799  1.0000
  H   H63       1.0  0.26371  0.18122  0.53391  1.0000
  H   H64       1.0  0.29280  0.16654  0.54229  1.0000
  H   H65       1.0  0.25056  0.14091  0.57860  1.0000
  C   C85       1.0  0.36809  0.11586  0.43768  1.0000
  C   C86       1.0  0.35390  0.09399  0.36262  1.0000
  C   C87       1.0  0.41428  0.15666  0.34788  1.0000
  N   N24       1.0  0.39646  0.14596  0.42589  1.0000
  C   C88       1.0  0.35249  0.10971  0.52803  1.0000
  H   H66       1.0  0.33038  0.08466  0.53376  1.0000
  H   H67       1.0  0.34505  0.12842  0.54250  1.0000
  H   H68       1.0  0.37068  0.11179  0.57861  1.0000
  C   C89       1.0  0.48863  0.74550  0.29684  1.0000
  C   C90       1.0  0.43613  0.69198  0.33666  1.0000
  C   C91       1.0  0.46788  0.70922  0.29078  1.0000
  N   N25       1.0  0.47807  0.69120  0.24003  1.0000
  H   H69       1.0  0.99646  0.70256  0.19734  1.0000
  H   H70       1.0  0.46462  0.66697  0.23385  1.0000
  H   H71       1.0  0.51736  0.80663  0.19720  1.0000
  C   C92       1.0  0.26606  0.74545  0.29748  1.0000
  C   C93       1.0  0.31962  0.74653  0.33696  1.0000
  C   C94       1.0  0.30233  0.76100  0.29113  1.0000
  C   C95       1.0  0.24782  0.76386  0.29745  1.0000
  N   N26       1.0  0.32030  0.78917  0.24021  1.0000
  H   H72       1.0  0.30889  0.79614  0.19755  1.0000
  H   H73       1.0  0.34453  0.79993  0.23384  1.0000
  C   C96       1.0  0.26623  0.52301  0.29697  1.0000
  C   C97       1.0  0.26512  0.57544  0.33682  1.0000
  C   C98       1.0  0.25066  0.54371  0.29087  1.0000
  C   C99       1.0  0.24782  0.98636  0.29711  1.0000
  C   C100      1.0  0.26339  0.96565  0.29085  1.0000
  C   C101      1.0  0.24889  0.93386  0.33653  1.0000
  N   N27       1.0  0.22248  0.53353  0.23999  1.0000
  N   N28       1.0  0.29160  0.97588  0.24007  1.0000
  H   H74       1.0  0.30234  0.96240  0.23358  1.0000
  H   H75       1.0  0.29854  0.49424  0.19735  1.0000
  C   C102      1.0  0.27559  0.87203  0.28415  1.0000
  N   N29       1.0  0.27279  0.90025  0.27782  1.0000
  H   H76       1.0  0.27978  0.86286  0.22583  1.0000
  C   C103      1.0  0.40817  0.77323  0.28418  1.0000
  N   N30       1.0  0.37708  0.77030  0.27800  1.0000
  H   H77       1.0  0.42131  0.77723  0.22553  1.0000
  C   C104      1.0  0.23841  0.63729  0.28440  1.0000
  N   N31       1.0  0.24121  0.60906  0.27811  1.0000
  H   H78       1.0  0.23413  0.64633  0.22595  1.0000
  C   C105      1.0  0.37434  0.60339  0.28418  1.0000
  N   N32       1.0  0.40249  0.63450  0.27798  1.0000
  H   H79       1.0  0.36518  0.59024  0.22558  1.0000
  C   C106      1.0  0.47090  0.76285  0.31930  1.0000
  C   C107      1.0  0.43750  0.74653  0.35120  1.0000
  C   C108      1.0  0.42229  0.71173  0.36708  1.0000
  H   H80       1.0  0.48311  0.78839  0.32459  1.0000
  H   H81       1.0  0.39772  0.69962  0.38843  1.0000
  C   C109      1.0  0.24871  0.71037  0.32002  1.0000
  C   C110      1.0  0.26507  0.69332  0.35174  1.0000
  C   C111      1.0  0.29991  0.71289  0.36702  1.0000
  H   H82       1.0  0.22318  0.69706  0.32532  1.0000
  H   H83       1.0  0.31204  0.70046  0.38837  1.0000
  C   C112      1.0  0.24881  0.81600  0.35177  1.0000
  C   C113      1.0  0.26517  0.79894  0.31990  1.0000
  H   H84       1.0  0.29071  0.81229  0.32497  1.0000
  C   C114      1.0  0.30133  0.54076  0.31930  1.0000
  C   C115      1.0  0.31835  0.57416  0.35132  1.0000
  C   C116      1.0  0.29872  0.58933  0.36712  1.0000
  H   H85       1.0  0.31465  0.52856  0.32497  1.0000
  H   H86       1.0  0.31118  0.61389  0.38851  1.0000
  C   C117      1.0  0.25681  0.86580  0.43749  1.0000
  C   C118      1.0  0.26453  0.85157  0.36252  1.0000
  C   C119      1.0  0.26243  0.91206  0.34767  1.0000
  N   N33       1.0  0.25519  0.89422  0.42568  1.0000
  C   C120      1.0  0.24742  0.85028  0.52797  1.0000
  H   H87       1.0  0.25035  0.82818  0.53385  1.0000
  H   H88       1.0  0.22129  0.84289  0.54253  1.0000
  H   H89       1.0  0.26358  0.86853  0.57840  1.0000
  C   C121      1.0  0.39578  0.75459  0.43755  1.0000
  C   C122      1.0  0.41772  0.76229  0.36259  1.0000
  C   C123      1.0  0.35495  0.75998  0.34796  1.0000
  N   N34       1.0  0.36569  0.75288  0.42592  1.0000
  C   C124      1.0  0.40200  0.74522  0.52795  1.0000
  H   H90       1.0  0.42705  0.74818  0.53364  1.0000
  H   H91       1.0  0.38330  0.71909  0.54258  1.0000
  H   H92       1.0  0.39994  0.76138  0.57844  1.0000
  C   C125      1.0  0.25712  0.64353  0.43761  1.0000
  C   C126      1.0  0.24935  0.65777  0.36276  1.0000
  C   C127      1.0  0.25158  0.59724  0.34790  1.0000
  N   N35       1.0  0.25882  0.61515  0.42580  1.0000
  C   C128      1.0  0.26665  0.65912  0.52799  1.0000
  H   H93       1.0  0.26371  0.68122  0.53391  1.0000
  H   H94       1.0  0.29280  0.66654  0.54229  1.0000
  H   H95       1.0  0.25056  0.64091  0.57860  1.0000
  C   C129      1.0  0.36809  0.61586  0.43768  1.0000
  C   C130      1.0  0.35390  0.59399  0.36262  1.0000
  C   C131      1.0  0.41428  0.65666  0.34788  1.0000
  N   N36       1.0  0.39646  0.64596  0.42589  1.0000
  C   C132      1.0  0.35248  0.60971  0.52803  1.0000
  H   H96       1.0  0.33038  0.58466  0.53376  1.0000
  H   H97       1.0  0.34505  0.62842  0.54250  1.0000
  H   H98       1.0  0.37068  0.61179  0.57861  1.0000
  C   C133      1.0  0.98863  0.24550  0.29684  1.0000
  C   C134      1.0  0.93614  0.19198  0.33666  1.0000
  C   C135      1.0  0.96788  0.20922  0.29078  1.0000
  C   C136      1.0  0.52528  0.26371  0.29673  1.0000
  C   C137      1.0  0.54599  0.29999  0.29066  1.0000
  C   C138      1.0  0.57769  0.31726  0.33676  1.0000
  N   N37       1.0  0.97807  0.19120  0.24003  1.0000
  N   N38       1.0  0.53585  0.31798  0.23962  1.0000
  H   H99       1.0  0.49646  0.20257  0.19734  1.0000
  H   H100      1.0  0.96462  0.16697  0.23385  1.0000
  H   H101      1.0  0.54909  0.34225  0.23393  1.0000
  C   C139      1.0  0.76606  0.24545  0.29748  1.0000
  C   C140      1.0  0.81963  0.24653  0.33696  1.0000
  C   C141      1.0  0.80233  0.26100  0.29113  1.0000
  C   C142      1.0  0.74782  0.26386  0.29745  1.0000
  C   C143      1.0  0.71154  0.24830  0.29139  1.0000
  C   C144      1.0  0.69428  0.26274  0.33745  1.0000
  N   N39       1.0  0.82030  0.28917  0.24021  1.0000
  N   N40       1.0  0.69353  0.22015  0.24043  1.0000
  H   H102      1.0  0.80889  0.29614  0.19755  1.0000
  H   H103      1.0  0.84453  0.29993  0.23384  1.0000
  H   H104      1.0  0.66926  0.20913  0.23477  1.0000
  H   H105      1.0  0.70486  0.21299  0.19801  1.0000
  C   C145      1.0  0.76623  0.02301  0.29697  1.0000
  C   C146      1.0  0.76512  0.07544  0.33682  1.0000
  C   C147      1.0  0.75066  0.04371  0.29087  1.0000
  C   C148      1.0  0.74782  0.48636  0.29711  1.0000
  C   C149      1.0  0.76339  0.46565  0.29085  1.0000
  C   C150      1.0  0.74889  0.43386  0.33653  1.0000
  N   N41       1.0  0.72249  0.03353  0.23999  1.0000
  N   N42       1.0  0.79160  0.47588  0.24007  1.0000
  H   H106      1.0  0.71547  0.51511  0.19736  1.0000
  H   H107      1.0  0.71160  0.04688  0.23384  1.0000
  H   H108      1.0  0.80234  0.46240  0.23358  1.0000
  H   H109      1.0  0.79854  0.99424  0.19735  1.0000
  C   C151      1.0  0.60572  0.23603  0.28453  1.0000
  N   N43       1.0  0.63683  0.23897  0.27843  1.0000
  H   H110      1.0  0.59259  0.23200  0.22588  1.0000
  C   C152      1.0  0.77559  0.37203  0.28415  1.0000
  N   N44       1.0  0.77279  0.40025  0.27782  1.0000
  H   H111      1.0  0.77978  0.36286  0.22583  1.0000
  C   C153      1.0  0.63960  0.40579  0.28388  1.0000
  N   N45       1.0  0.61136  0.37476  0.27772  1.0000
  H   H112      1.0  0.64862  0.41908  0.22539  1.0000
  C   C154      1.0  0.90817  0.27323  0.28418  1.0000
  N   N46       1.0  0.87708  0.27030  0.27800  1.0000
  H   H113      1.0  0.92131  0.27723  0.22553  1.0000
  C   C155      1.0  0.73841  0.13729  0.28440  1.0000
  N   N47       1.0  0.74121  0.10906  0.27811  1.0000
  H   H114      1.0  0.73413  0.14633  0.22595  1.0000
  C   C156      1.0  0.87433  0.10339  0.28418  1.0000
  N   N48       1.0  0.90249  0.13450  0.27798  1.0000
  H   H115      1.0  0.86518  0.09024  0.22558  1.0000
  C   C157      1.0  0.97090  0.26286  0.31930  1.0000
  C   C158      1.0  0.93750  0.24652  0.35120  1.0000
  C   C159      1.0  0.92229  0.21173  0.36708  1.0000
  H   H116      1.0  0.98311  0.28839  0.32459  1.0000
  H   H117      1.0  0.89772  0.19961  0.38843  1.0000
  C   C160      1.0  0.59159  0.29754  0.36691  1.0000
  C   C161      1.0  0.57640  0.26273  0.35131  1.0000
  C   C162      1.0  0.54301  0.24636  0.31924  1.0000
  H   H118      1.0  0.61613  0.30964  0.38849  1.0000
  H   H119      1.0  0.53079  0.22085  0.32494  1.0000
  C   C163      1.0  0.74871  0.21037  0.32002  1.0000
  C   C164      1.0  0.76507  0.19331  0.35174  1.0000
  C   C165      1.0  0.79991  0.21290  0.36702  1.0000
  H   H120      1.0  0.72318  0.19706  0.32532  1.0000
  H   H121      1.0  0.81204  0.20046  0.38837  1.0000
  C   C166      1.0  0.71401  0.29638  0.36749  1.0000
  C   C167      1.0  0.74881  0.31600  0.35177  1.0000
  C   C168      1.0  0.76517  0.29894  0.31990  1.0000
  H   H122      1.0  0.70191  0.30884  0.38891  1.0000
  H   H123      1.0  0.79070  0.31229  0.32497  1.0000
  C   C169      1.0  0.80133  0.04076  0.31930  1.0000
  C   C170      1.0  0.81835  0.07416  0.35132  1.0000
  C   C171      1.0  0.79872  0.08933  0.36712  1.0000
  H   H124      1.0  0.81465  0.02856  0.32497  1.0000
  H   H125      1.0  0.81118  0.11389  0.38851  1.0000
  C   C172      1.0  0.71524  0.41992  0.36652  1.0000
  C   C173      1.0  0.69566  0.43516  0.35104  1.0000
  C   C174      1.0  0.71274  0.46862  0.31955  1.0000
  H   H126      1.0  0.70279  0.39532  0.38765  1.0000
  H   H127      1.0  0.69941  0.48082  0.32483  1.0000
  C   C175      1.0  0.61811  0.25474  0.43793  1.0000
  C   C176      1.0  0.59620  0.24700  0.36293  1.0000
  C   C177      1.0  0.65895  0.24934  0.34841  1.0000
  N   N49       1.0  0.64821  0.25646  0.42633  1.0000
  C   C178      1.0  0.61189  0.26416  0.52824  1.0000
  H   H128      1.0  0.58683  0.26121  0.53385  1.0000
  H   H129      1.0  0.63058  0.29030  0.54280  1.0000
  H   H130      1.0  0.61394  0.24803  0.57884  1.0000
  C   C179      1.0  0.75681  0.36580  0.43749  1.0000
  C   C180      1.0  0.76453  0.35157  0.36252  1.0000
  C   C181      1.0  0.76243  0.41206  0.34767  1.0000
  N   N50       1.0  0.75519  0.39422  0.42568  1.0000
  C   C182      1.0  0.74742  0.35028  0.52797  1.0000
  H   H131      1.0  0.75035  0.32818  0.53385  1.0000
  H   H132      1.0  0.72129  0.34289  0.54253  1.0000
  H   H133      1.0  0.76358  0.36853  0.57840  1.0000
  C   C183      1.0  0.64591  0.39339  0.43712  1.0000
  C   C184      1.0  0.66011  0.41535  0.36218  1.0000
  C   C185      1.0  0.59956  0.35260  0.34760  1.0000
  N   N51       1.0  0.61751  0.36331  0.42544  1.0000
  C   C186      1.0  0.66152  0.39950  0.52747  1.0000
  H   H134      1.0  0.68362  0.42454  0.53328  1.0000
  H   H135      1.0  0.66895  0.38078  0.54182  1.0000
  H   H136      1.0  0.64332  0.39739  0.57809  1.0000
  C   C187      1.0  0.89578  0.25459  0.43755  1.0000
  C   C188      1.0  0.91772  0.26229  0.36259  1.0000
  C   C189      1.0  0.85496  0.25998  0.34796  1.0000
  N   N52       1.0  0.86569  0.25288  0.42592  1.0000
  C   C190      1.0  0.90199  0.24522  0.52795  1.0000
  H   H137      1.0  0.92705  0.24818  0.53364  1.0000
  H   H138      1.0  0.88330  0.21909  0.54258  1.0000
  H   H139      1.0  0.89994  0.26138  0.57844  1.0000
  C   C191      1.0  0.75712  0.14353  0.43761  1.0000
  C   C192      1.0  0.74935  0.15776  0.36276  1.0000
  C   C193      1.0  0.75158  0.09724  0.34790  1.0000
  N   N53       1.0  0.75882  0.11515  0.42580  1.0000
  C   C194      1.0  0.76664  0.15912  0.52799  1.0000
  H   H140      1.0  0.76371  0.18122  0.53391  1.0000
  H   H141      1.0  0.79280  0.16654  0.54229  1.0000
  H   H142      1.0  0.75057  0.14091  0.57860  1.0000
  C   C195      1.0  0.86809  0.11586  0.43768  1.0000
  C   C196      1.0  0.85391  0.09399  0.36262  1.0000
  C   C197      1.0  0.91428  0.15666  0.34788  1.0000
  N   N54       1.0  0.89646  0.14596  0.42589  1.0000
  C   C198      1.0  0.85248  0.10971  0.52803  1.0000
  H   H143      1.0  0.83038  0.08466  0.53376  1.0000
  H   H144      1.0  0.84506  0.12842  0.54250  1.0000
  H   H145      1.0  0.87069  0.11179  0.57861  1.0000
  C   C199      1.0  0.98863  0.74550  0.29684  1.0000
  C   C200      1.0  0.93613  0.69198  0.33666  1.0000
  C   C201      1.0  0.96788  0.70922  0.29078  1.0000
  C   C202      1.0  0.52528  0.76371  0.29673  1.0000
  C   C203      1.0  0.54599  0.79999  0.29066  1.0000
  C   C204      1.0  0.57769  0.81726  0.33676  1.0000
  N   N55       1.0  0.97807  0.69120  0.24003  1.0000
  N   N56       1.0  0.53585  0.81798  0.23962  1.0000
  H   H146      1.0  0.49646  0.70256  0.19734  1.0000
  H   H147      1.0  0.96462  0.66697  0.23385  1.0000
  H   H148      1.0  0.54909  0.84225  0.23393  1.0000
  C   C205      1.0  0.76606  0.74545  0.29748  1.0000
  C   C206      1.0  0.81963  0.74653  0.33696  1.0000
  C   C207      1.0  0.80233  0.76100  0.29113  1.0000
  C   C208      1.0  0.74782  0.76386  0.29745  1.0000
  C   C209      1.0  0.71154  0.74830  0.29139  1.0000
  C   C210      1.0  0.69428  0.76274  0.33745  1.0000
  N   N57       1.0  0.82030  0.78917  0.24021  1.0000
  N   N58       1.0  0.69353  0.72015  0.24043  1.0000
  H   H149      1.0  0.80889  0.79614  0.19755  1.0000
  H   H150      1.0  0.84453  0.79993  0.23384  1.0000
  H   H151      1.0  0.66926  0.70913  0.23477  1.0000
  H   H152      1.0  0.70486  0.71299  0.19801  1.0000
  C   C211      1.0  0.76623  0.52301  0.29697  1.0000
  C   C212      1.0  0.76511  0.57544  0.33682  1.0000
  C   C213      1.0  0.75066  0.54371  0.29087  1.0000
  C   C214      1.0  0.74782  0.98636  0.29711  1.0000
  C   C215      1.0  0.76339  0.96565  0.29085  1.0000
  C   C216      1.0  0.74889  0.93386  0.33653  1.0000
  N   N59       1.0  0.72249  0.53353  0.23999  1.0000
  N   N60       1.0  0.79160  0.97588  0.24007  1.0000
  H   H153      1.0  0.71547  0.01512  0.19736  1.0000
  H   H154      1.0  0.71160  0.54688  0.23384  1.0000
  H   H155      1.0  0.80234  0.96240  0.23358  1.0000
  H   H156      1.0  0.79854  0.49424  0.19735  1.0000
  C   C217      1.0  0.60572  0.73604  0.28453  1.0000
  N   N61       1.0  0.63683  0.73897  0.27843  1.0000
  H   H157      1.0  0.59259  0.73200  0.22588  1.0000
  C   C218      1.0  0.77559  0.87203  0.28415  1.0000
  N   N62       1.0  0.77279  0.90025  0.27782  1.0000
  H   H158      1.0  0.77978  0.86286  0.22583  1.0000
  C   C219      1.0  0.63960  0.90579  0.28388  1.0000
  N   N63       1.0  0.61136  0.87476  0.27772  1.0000
  H   H159      1.0  0.64862  0.91908  0.22539  1.0000
  C   C220      1.0  0.90817  0.77323  0.28418  1.0000
  N   N64       1.0  0.87708  0.77030  0.27800  1.0000
  H   H160      1.0  0.92131  0.77723  0.22553  1.0000
  C   C221      1.0  0.73841  0.63729  0.28440  1.0000
  N   N65       1.0  0.74121  0.60906  0.27811  1.0000
  H   H161      1.0  0.73413  0.64633  0.22595  1.0000
  C   C222      1.0  0.87434  0.60339  0.28418  1.0000
  N   N66       1.0  0.90249  0.63450  0.27798  1.0000
  H   H162      1.0  0.86518  0.59024  0.22558  1.0000
  C   C223      1.0  0.97090  0.76285  0.31930  1.0000
  C   C224      1.0  0.93750  0.74653  0.35120  1.0000
  C   C225      1.0  0.92229  0.71173  0.36708  1.0000
  H   H163      1.0  0.98310  0.78839  0.32459  1.0000
  H   H164      1.0  0.89772  0.69962  0.38843  1.0000
  C   C226      1.0  0.59159  0.79754  0.36691  1.0000
  C   C227      1.0  0.57640  0.76273  0.35131  1.0000
  C   C228      1.0  0.54301  0.74636  0.31924  1.0000
  H   H165      1.0  0.61613  0.80964  0.38849  1.0000
  H   H166      1.0  0.53079  0.72084  0.32494  1.0000
  C   C229      1.0  0.74871  0.71037  0.32002  1.0000
  C   C230      1.0  0.76507  0.69332  0.35174  1.0000
  C   C231      1.0  0.79991  0.71289  0.36702  1.0000
  H   H167      1.0  0.72318  0.69706  0.32532  1.0000
  H   H168      1.0  0.81204  0.70046  0.38837  1.0000
  C   C232      1.0  0.71401  0.79638  0.36749  1.0000
  C   C233      1.0  0.74881  0.81600  0.35177  1.0000
  C   C234      1.0  0.76517  0.79894  0.31990  1.0000
  H   H169      1.0  0.70191  0.80884  0.38891  1.0000
  H   H170      1.0  0.79070  0.81229  0.32497  1.0000
  C   C235      1.0  0.80133  0.54076  0.31930  1.0000
  C   C236      1.0  0.81835  0.57416  0.35132  1.0000
  C   C237      1.0  0.79872  0.58933  0.36712  1.0000
  H   H171      1.0  0.81465  0.52856  0.32497  1.0000
  H   H172      1.0  0.81118  0.61389  0.38851  1.0000
  C   C238      1.0  0.71524  0.91992  0.36652  1.0000
  C   C239      1.0  0.69566  0.93516  0.35104  1.0000
  C   C240      1.0  0.71274  0.96862  0.31955  1.0000
  H   H173      1.0  0.70279  0.89533  0.38765  1.0000
  H   H174      1.0  0.69941  0.98082  0.32483  1.0000
  C   C241      1.0  0.61811  0.75474  0.43793  1.0000
  C   C242      1.0  0.59621  0.74700  0.36293  1.0000
  C   C243      1.0  0.65895  0.74933  0.34841  1.0000
  N   N67       1.0  0.64821  0.75646  0.42633  1.0000
  C   C244      1.0  0.61189  0.76416  0.52824  1.0000
  H   H175      1.0  0.58683  0.76121  0.53385  1.0000
  H   H176      1.0  0.63058  0.79030  0.54280  1.0000
  H   H177      1.0  0.61394  0.74803  0.57884  1.0000
  C   C245      1.0  0.75682  0.86580  0.43749  1.0000
  C   C246      1.0  0.76453  0.85157  0.36252  1.0000
  C   C247      1.0  0.76243  0.91206  0.34767  1.0000
  N   N68       1.0  0.75519  0.89422  0.42568  1.0000
  C   C248      1.0  0.74742  0.85028  0.52797  1.0000
  H   H178      1.0  0.75035  0.82818  0.53385  1.0000
  H   H179      1.0  0.72129  0.84289  0.54253  1.0000
  H   H180      1.0  0.76358  0.86853  0.57840  1.0000
  C   C249      1.0  0.64590  0.89339  0.43712  1.0000
  C   C250      1.0  0.66011  0.91535  0.36218  1.0000
  C   C251      1.0  0.59956  0.85260  0.34760  1.0000
  N   N69       1.0  0.61751  0.86331  0.42544  1.0000
  C   C252      1.0  0.66152  0.89950  0.52747  1.0000
  H   H181      1.0  0.68362  0.92454  0.53328  1.0000
  H   H182      1.0  0.66894  0.88078  0.54182  1.0000
  H   H183      1.0  0.64332  0.89739  0.57809  1.0000
  C   C253      1.0  0.89578  0.75459  0.43755  1.0000
  C   C254      1.0  0.91772  0.76229  0.36259  1.0000
  C   C255      1.0  0.85495  0.75998  0.34796  1.0000
  N   N70       1.0  0.86569  0.75288  0.42592  1.0000
  C   C256      1.0  0.90200  0.74522  0.52795  1.0000
  H   H184      1.0  0.92705  0.74818  0.53364  1.0000
  H   H185      1.0  0.88330  0.71909  0.54258  1.0000
  H   H186      1.0  0.89994  0.76138  0.57844  1.0000
  C   C257      1.0  0.75712  0.64353  0.43761  1.0000
  C   C258      1.0  0.74935  0.65777  0.36276  1.0000
  C   C259      1.0  0.75158  0.59724  0.34790  1.0000
  N   N71       1.0  0.75882  0.61515  0.42580  1.0000
  C   C260      1.0  0.76665  0.65912  0.52799  1.0000
  H   H187      1.0  0.76371  0.68122  0.53391  1.0000
  H   H188      1.0  0.79280  0.66654  0.54229  1.0000
  H   H189      1.0  0.75056  0.64091  0.57860  1.0000
  C   C261      1.0  0.86809  0.61586  0.43768  1.0000
  C   C262      1.0  0.85390  0.59399  0.36262  1.0000
  C   C263      1.0  0.91428  0.65666  0.34788  1.0000
  N   N72       1.0  0.89646  0.64596  0.42589  1.0000
  C   C264      1.0  0.85248  0.60971  0.52803  1.0000
  H   H190      1.0  0.83038  0.58466  0.53376  1.0000
  H   H191      1.0  0.84505  0.62842  0.54250  1.0000
  H   H192      1.0  0.87068  0.61179  0.57861  1.0000
