data_image0
_chemical_formula_structural       C3OHCHC2OHC3HCOH2C3OHCHC2OHC3HCOH2COHC2OHCH3CH2C2HC3OHCOHC2OHCH3CH2C2HC3OHC5OHC3HOHCHC6OHC3HC5OHC3HOHCHC6OHC3HC3OHC3OHC3OHC3HOHC3HOHC3HOHC3H2C2HCHC3H2CHC3OH2OHC3OH2C3OHC3OHC3OHC3HOHC3HOHC3HOHC3H2C2HCHC3H2CHC3OH2OHC3OH2C6O2H2C6O2H2C6O2H2C3HOHC3HOHC3HOHC3HOHC3HOHC3HOHC3H2C3H2C3H2C3H2C3H2C3H2C3OH2C3OH2C3OH2C3OH2C3OH2C3OH2C6O2H2C6O2H2C6O2H2C3HOHC3HOHC3HOHC3HOHC3HOHC3HOHC3H2C3H2C3H2C3H2C3H2C3H2C3OH2C3OH2C3OH2C3OH2C3OH2C3OH2
_chemical_formula_sum              "C288 O72 H168"
_cell_length_a       46.5564
_cell_length_b       46.5564
_cell_length_c       14.8394
_cell_angle_alpha    90
_cell_angle_beta     90
_cell_angle_gamma    120

_space_group_name_H-M_alt    "P 1"
_space_group_IT_number       1

loop_
  _space_group_symop_operation_xyz
  'x, y, z'

loop_
  _atom_site_type_symbol
  _atom_site_label
  _atom_site_symmetry_multiplicity
  _atom_site_fract_x
  _atom_site_fract_y
  _atom_site_fract_z
  _atom_site_occupancy
  C   C1        1.0  0.02620  0.26454  0.31478  1.0000
  C   C2        1.0  0.04639  0.30030  0.31042  1.0000
  C   C3        1.0  0.07980  0.31773  0.34182  1.0000
  O   O1        1.0  0.03500  0.32015  0.27832  1.0000
  H   H1        1.0  0.02946  0.31430  0.21448  1.0000
  C   C4        1.0  0.10826  0.23930  0.28008  1.0000
  H   H2        1.0  0.09597  0.23731  0.22109  1.0000
  C   C5        1.0  0.11168  0.37457  0.27584  1.0000
  C   C6        1.0  0.10025  0.35282  0.35111  1.0000
  O   O2        1.0  0.09873  0.36307  0.19257  1.0000
  H   H3        1.0  0.08812  0.37578  0.17342  1.0000
  C   C7        1.0  0.09505  0.29892  0.36249  1.0000
  C   C8        1.0  0.07886  0.26436  0.35137  1.0000
  C   C9        1.0  0.04479  0.24794  0.32926  1.0000
  H   H4        1.0  0.03344  0.22293  0.33460  1.0000
  C   C10       1.0  0.09818  0.24861  0.35979  1.0000
  O   O3        1.0  0.11112  0.26521  0.51645  1.0000
  H   H5        1.0  0.09054  0.24644  0.54005  1.0000
  H   H6        1.0  0.11060  0.34993  0.48896  1.0000
  C   C11       1.0  0.02619  0.76454  0.31478  1.0000
  C   C12       1.0  0.04639  0.80031  0.31042  1.0000
  C   C13       1.0  0.07980  0.81773  0.34182  1.0000
  O   O4        1.0  0.03500  0.82015  0.27832  1.0000
  H   H7        1.0  0.02946  0.81430  0.21448  1.0000
  C   C14       1.0  0.10826  0.73930  0.28008  1.0000
  H   H8        1.0  0.09596  0.73731  0.22109  1.0000
  C   C15       1.0  0.11168  0.87458  0.27584  1.0000
  C   C16       1.0  0.10025  0.85282  0.35111  1.0000
  O   O5        1.0  0.09873  0.86307  0.19257  1.0000
  H   H9        1.0  0.08812  0.87577  0.17342  1.0000
  C   C17       1.0  0.09504  0.79892  0.36249  1.0000
  C   C18       1.0  0.07886  0.76436  0.35137  1.0000
  C   C19       1.0  0.04479  0.74794  0.32926  1.0000
  H   H10       1.0  0.03344  0.72294  0.33460  1.0000
  C   C20       1.0  0.09818  0.74861  0.35979  1.0000
  O   O6        1.0  0.11113  0.76521  0.51645  1.0000
  H   H11       1.0  0.09054  0.74644  0.54005  1.0000
  H   H12       1.0  0.11060  0.84993  0.48896  1.0000
  C   C21       1.0  0.19582  0.26485  0.34099  1.0000
  O   O7        1.0  0.19341  0.21756  0.27806  1.0000
  H   H13       1.0  0.19927  0.21785  0.21423  1.0000
  C   C22       1.0  0.13902  0.23990  0.27492  1.0000
  C   C23       1.0  0.16073  0.25022  0.35027  1.0000
  O   O8        1.0  0.15056  0.23848  0.19167  1.0000
  H   H14       1.0  0.13788  0.21517  0.17249  1.0000
  C   C24       1.0  0.14184  0.40533  0.28103  1.0000
  H   H15       1.0  0.15214  0.41764  0.22205  1.0000
  H   H16       1.0  0.11995  0.31117  0.37713  1.0000
  H   H17       1.0  0.20238  0.31159  0.37604  1.0000
  C   C25       1.0  0.19633  0.43469  0.35223  1.0000
  H   H18       1.0  0.20208  0.39363  0.37817  1.0000
  H   H19       1.0  0.20028  0.48008  0.33509  1.0000
  C   C26       1.0  0.14848  0.25534  0.43264  1.0000
  C   C27       1.0  0.11802  0.25469  0.43787  1.0000
  H   H20       1.0  0.16360  0.26340  0.48816  1.0000
  C   C28       1.0  0.11766  0.36505  0.43345  1.0000
  C   C29       1.0  0.14750  0.39549  0.43873  1.0000
  C   C30       1.0  0.16126  0.41536  0.36070  1.0000
  O   O9        1.0  0.16492  0.40235  0.51730  1.0000
  H   H21       1.0  0.16674  0.42293  0.54098  1.0000
  C   C31       1.0  0.19582  0.76485  0.34099  1.0000
  O   O10       1.0  0.19341  0.71756  0.27806  1.0000
  H   H22       1.0  0.19927  0.71785  0.21423  1.0000
  C   C32       1.0  0.13902  0.73990  0.27492  1.0000
  C   C33       1.0  0.16073  0.75022  0.35027  1.0000
  O   O11       1.0  0.15056  0.73848  0.19167  1.0000
  H   H23       1.0  0.13788  0.71517  0.17249  1.0000
  C   C34       1.0  0.14184  0.90533  0.28103  1.0000
  H   H24       1.0  0.15214  0.91764  0.22205  1.0000
  H   H25       1.0  0.11995  0.81117  0.37713  1.0000
  H   H26       1.0  0.20238  0.81159  0.37604  1.0000
  C   C35       1.0  0.19632  0.93469  0.35223  1.0000
  H   H27       1.0  0.20208  0.89363  0.37817  1.0000
  H   H28       1.0  0.20028  0.98008  0.33509  1.0000
  C   C36       1.0  0.14848  0.75534  0.43264  1.0000
  C   C37       1.0  0.11802  0.75470  0.43787  1.0000
  H   H29       1.0  0.16360  0.76340  0.48816  1.0000
  C   C38       1.0  0.11766  0.86506  0.43345  1.0000
  C   C39       1.0  0.14750  0.89550  0.43873  1.0000
  C   C40       1.0  0.16126  0.91536  0.36070  1.0000
  O   O12       1.0  0.16492  0.90235  0.51730  1.0000
  H   H30       1.0  0.16674  0.92293  0.54098  1.0000
  C   C41       1.0  0.24901  0.26434  0.31480  1.0000
  C   C42       1.0  0.21325  0.24881  0.31007  1.0000
  C   C43       1.0  0.25155  0.04369  0.31021  1.0000
  C   C44       1.0  0.24911  0.48730  0.31494  1.0000
  C   C45       1.0  0.24872  0.43372  0.34202  1.0000
  O   O13       1.0  0.22031  0.03229  0.27812  1.0000
  H   H31       1.0  0.22062  0.02674  0.21429  1.0000
  C   C46       1.0  0.24203  0.13918  0.28045  1.0000
  C   C47       1.0  0.24264  0.10902  0.27526  1.0000
  C   C48       1.0  0.25292  0.09758  0.35059  1.0000
  H   H32       1.0  0.24005  0.14950  0.22148  1.0000
  O   O14       1.0  0.24125  0.09610  0.19199  1.0000
  H   H33       1.0  0.21793  0.08546  0.17279  1.0000
  C   C49       1.0  0.25062  0.21120  0.32949  1.0000
  H   H34       1.0  0.22563  0.19754  0.33488  1.0000
  C   C50       1.0  0.21463  0.29891  0.36166  1.0000
  C   C51       1.0  0.24920  0.31722  0.35085  1.0000
  C   C52       1.0  0.21472  0.41852  0.36332  1.0000
  C   C53       1.0  0.21394  0.46873  0.32974  1.0000
  C   C54       1.0  0.25843  0.39587  0.43320  1.0000
  C   C55       1.0  0.25910  0.36605  0.43805  1.0000
  O   O15       1.0  0.24870  0.34859  0.51658  1.0000
  H   H35       1.0  0.25045  0.40291  0.48891  1.0000
  C   C56       1.0  0.25805  0.11495  0.43297  1.0000
  C   C57       1.0  0.25741  0.14477  0.43832  1.0000
  C   C58       1.0  0.25132  0.15851  0.36026  1.0000
  H   H36       1.0  0.24920  0.16404  0.54048  1.0000
  C   C59       1.0  0.24901  0.76434  0.31480  1.0000
  C   C60       1.0  0.21325  0.74881  0.31007  1.0000
  C   C61       1.0  0.25155  0.54369  0.31021  1.0000
  C   C62       1.0  0.24912  0.98730  0.31494  1.0000
  C   C63       1.0  0.24872  0.93372  0.34202  1.0000
  O   O16       1.0  0.22031  0.53229  0.27812  1.0000
  H   H37       1.0  0.22062  0.52674  0.21429  1.0000
  C   C64       1.0  0.24203  0.63918  0.28045  1.0000
  C   C65       1.0  0.24264  0.60902  0.27526  1.0000
  C   C66       1.0  0.25292  0.59758  0.35059  1.0000
  H   H38       1.0  0.24005  0.64950  0.22148  1.0000
  O   O17       1.0  0.24125  0.59610  0.19199  1.0000
  H   H39       1.0  0.21793  0.58545  0.17279  1.0000
  C   C67       1.0  0.25062  0.71120  0.32949  1.0000
  H   H40       1.0  0.22563  0.69754  0.33488  1.0000
  C   C68       1.0  0.21463  0.79891  0.36166  1.0000
  C   C69       1.0  0.24920  0.81722  0.35085  1.0000
  C   C70       1.0  0.21472  0.91852  0.36332  1.0000
  C   C71       1.0  0.21394  0.96873  0.32974  1.0000
  C   C72       1.0  0.25843  0.89587  0.43320  1.0000
  C   C73       1.0  0.25910  0.86605  0.43805  1.0000
  O   O18       1.0  0.24870  0.84860  0.51658  1.0000
  H   H41       1.0  0.25045  0.90291  0.48891  1.0000
  C   C74       1.0  0.25805  0.61495  0.43297  1.0000
  C   C75       1.0  0.25741  0.64477  0.43832  1.0000
  C   C76       1.0  0.25132  0.65851  0.36026  1.0000
  H   H42       1.0  0.24920  0.66404  0.54048  1.0000
  C   C77       1.0  0.49003  0.24632  0.31488  1.0000
  C   C78       1.0  0.43639  0.19313  0.34166  1.0000
  C   C79       1.0  0.46980  0.21056  0.31027  1.0000
  O   O19       1.0  0.48118  0.19074  0.27791  1.0000
  H   H43       1.0  0.48670  0.19664  0.21409  1.0000
  C   C80       1.0  0.26722  0.24639  0.31485  1.0000
  C   C81       1.0  0.32042  0.24599  0.34176  1.0000
  C   C82       1.0  0.30298  0.26195  0.31031  1.0000
  O   O20       1.0  0.32279  0.29314  0.27783  1.0000
  H   H44       1.0  0.31687  0.29273  0.21402  1.0000
  C   C83       1.0  0.26708  0.02347  0.31480  1.0000
  C   C84       1.0  0.26757  0.07714  0.34133  1.0000
  C   C85       1.0  0.26466  0.46709  0.31040  1.0000
  O   O21       1.0  0.29585  0.47846  0.27795  1.0000
  H   H45       1.0  0.29547  0.48402  0.21416  1.0000
  C   C86       1.0  0.27396  0.37162  0.28003  1.0000
  C   C87       1.0  0.27343  0.40182  0.27510  1.0000
  C   C88       1.0  0.26329  0.41320  0.35091  1.0000
  H   H46       1.0  0.27587  0.36138  0.22080  1.0000
  O   O22       1.0  0.27462  0.41473  0.19195  1.0000
  H   H47       1.0  0.29786  0.42525  0.17216  1.0000
  C   C89       1.0  0.40787  0.27128  0.28066  1.0000
  C   C90       1.0  0.37715  0.27075  0.27538  1.0000
  C   C91       1.0  0.35550  0.26064  0.35092  1.0000
  H   H48       1.0  0.42012  0.27322  0.22158  1.0000
  O   O23       1.0  0.36556  0.27202  0.19211  1.0000
  H   H49       1.0  0.37825  0.29530  0.17259  1.0000
  C   C92       1.0  0.37427  0.10576  0.28002  1.0000
  C   C93       1.0  0.40447  0.13650  0.27495  1.0000
  C   C94       1.0  0.41590  0.15804  0.35070  1.0000
  H   H50       1.0  0.36400  0.09358  0.22085  1.0000
  O   O24       1.0  0.41735  0.14818  0.19175  1.0000
  H   H51       1.0  0.42789  0.13549  0.17201  1.0000
  C   C95       1.0  0.47145  0.26291  0.32976  1.0000
  C   C96       1.0  0.43738  0.24648  0.35181  1.0000
  C   C97       1.0  0.42119  0.21193  0.36304  1.0000
  H   H52       1.0  0.48278  0.28791  0.33501  1.0000
  H   H53       1.0  0.39629  0.19967  0.37765  1.0000
  C   C98       1.0  0.26707  0.19358  0.35172  1.0000
  C   C99       1.0  0.30163  0.21197  0.36289  1.0000
  H   H54       1.0  0.31389  0.19933  0.37754  1.0000
  C   C100      1.0  0.26562  0.29952  0.32961  1.0000
  H   H55       1.0  0.29063  0.31314  0.33509  1.0000
  C   C101      1.0  0.30226  0.04204  0.32951  1.0000
  C   C102      1.0  0.31996  0.07616  0.35102  1.0000
  C   C103      1.0  0.30162  0.09238  0.36211  1.0000
  H   H56       1.0  0.31590  0.03068  0.33497  1.0000
  H   H57       1.0  0.31430  0.11731  0.37648  1.0000
  C   C104      1.0  0.26502  0.35226  0.35982  1.0000
  H   H58       1.0  0.26753  0.34685  0.53997  1.0000
  C   C105      1.0  0.36784  0.25568  0.43336  1.0000
  C   C106      1.0  0.39829  0.25630  0.43864  1.0000
  C   C107      1.0  0.41810  0.26226  0.36064  1.0000
  O   O25       1.0  0.40521  0.24584  0.51728  1.0000
  H   H59       1.0  0.35274  0.24769  0.48891  1.0000
  H   H60       1.0  0.42578  0.26464  0.54082  1.0000
  O   O26       1.0  0.26794  0.16218  0.51690  1.0000
  H   H61       1.0  0.26611  0.10788  0.48849  1.0000
  C   C108      1.0  0.39862  0.14560  0.43309  1.0000
  C   C109      1.0  0.36881  0.11512  0.43813  1.0000
  C   C110      1.0  0.35501  0.09540  0.35996  1.0000
  O   O27       1.0  0.35140  0.10809  0.51672  1.0000
  H   H62       1.0  0.40570  0.16065  0.48874  1.0000
  H   H63       1.0  0.34963  0.08750  0.54008  1.0000
  C   C111      1.0  0.49002  0.74632  0.31488  1.0000
  C   C112      1.0  0.43639  0.69313  0.34166  1.0000
  C   C113      1.0  0.46980  0.71056  0.31027  1.0000
  O   O28       1.0  0.48118  0.69074  0.27791  1.0000
  H   H64       1.0  0.48670  0.69664  0.21409  1.0000
  C   C114      1.0  0.26722  0.74639  0.31485  1.0000
  C   C115      1.0  0.32042  0.74599  0.34176  1.0000
  C   C116      1.0  0.30298  0.76195  0.31031  1.0000
  O   O29       1.0  0.32279  0.79314  0.27783  1.0000
  H   H65       1.0  0.31687  0.79273  0.21402  1.0000
  C   C117      1.0  0.26708  0.52347  0.31480  1.0000
  C   C118      1.0  0.26757  0.57714  0.34133  1.0000
  C   C119      1.0  0.26466  0.96709  0.31040  1.0000
  O   O30       1.0  0.29585  0.97847  0.27795  1.0000
  H   H66       1.0  0.29547  0.98402  0.21416  1.0000
  C   C120      1.0  0.27396  0.87162  0.28003  1.0000
  C   C121      1.0  0.27343  0.90182  0.27510  1.0000
  C   C122      1.0  0.26329  0.91320  0.35091  1.0000
  H   H67       1.0  0.27587  0.86138  0.22080  1.0000
  O   O31       1.0  0.27462  0.91473  0.19195  1.0000
  H   H68       1.0  0.29786  0.92525  0.17216  1.0000
  C   C123      1.0  0.40787  0.77128  0.28066  1.0000
  C   C124      1.0  0.37715  0.77075  0.27538  1.0000
  C   C125      1.0  0.35550  0.76064  0.35092  1.0000
  H   H69       1.0  0.42012  0.77323  0.22158  1.0000
  O   O32       1.0  0.36556  0.77202  0.19211  1.0000
  H   H70       1.0  0.37825  0.79530  0.17259  1.0000
  C   C126      1.0  0.37427  0.60576  0.28002  1.0000
  C   C127      1.0  0.40447  0.63650  0.27495  1.0000
  C   C128      1.0  0.41590  0.65804  0.35070  1.0000
  H   H71       1.0  0.36400  0.59357  0.22085  1.0000
  O   O33       1.0  0.41734  0.64819  0.19175  1.0000
  H   H72       1.0  0.42789  0.63549  0.17201  1.0000
  C   C129      1.0  0.47144  0.76291  0.32976  1.0000
  C   C130      1.0  0.43738  0.74648  0.35181  1.0000
  C   C131      1.0  0.42119  0.71193  0.36304  1.0000
  H   H73       1.0  0.48278  0.78791  0.33501  1.0000
  H   H74       1.0  0.39629  0.69967  0.37765  1.0000
  C   C132      1.0  0.26707  0.69358  0.35172  1.0000
  C   C133      1.0  0.30163  0.71197  0.36290  1.0000
  H   H75       1.0  0.31389  0.69933  0.37754  1.0000
  C   C134      1.0  0.26562  0.79952  0.32961  1.0000
  H   H76       1.0  0.29062  0.81314  0.33509  1.0000
  C   C135      1.0  0.30226  0.54204  0.32951  1.0000
  C   C136      1.0  0.31996  0.57616  0.35102  1.0000
  C   C137      1.0  0.30162  0.59238  0.36211  1.0000
  H   H77       1.0  0.31590  0.53068  0.33497  1.0000
  H   H78       1.0  0.31430  0.61731  0.37648  1.0000
  C   C138      1.0  0.26502  0.85226  0.35982  1.0000
  H   H79       1.0  0.26753  0.84685  0.53997  1.0000
  C   C139      1.0  0.36784  0.75568  0.43336  1.0000
  C   C140      1.0  0.39829  0.75630  0.43864  1.0000
  C   C141      1.0  0.41810  0.76226  0.36064  1.0000
  O   O34       1.0  0.40521  0.74584  0.51728  1.0000
  H   H80       1.0  0.35274  0.74769  0.48891  1.0000
  H   H81       1.0  0.42578  0.76464  0.54082  1.0000
  O   O35       1.0  0.26794  0.66218  0.51690  1.0000
  H   H82       1.0  0.26611  0.60789  0.48849  1.0000
  C   C142      1.0  0.39862  0.64560  0.43309  1.0000
  C   C143      1.0  0.36882  0.61512  0.43813  1.0000
  C   C144      1.0  0.35501  0.59540  0.35996  1.0000
  O   O36       1.0  0.35140  0.60809  0.51672  1.0000
  H   H83       1.0  0.40570  0.66065  0.48874  1.0000
  H   H84       1.0  0.34963  0.58750  0.54008  1.0000
  C   C145      1.0  0.99003  0.24632  0.31488  1.0000
  C   C146      1.0  0.93639  0.19313  0.34166  1.0000
  C   C147      1.0  0.96981  0.21056  0.31027  1.0000
  C   C148      1.0  0.52620  0.26454  0.31478  1.0000
  C   C149      1.0  0.54640  0.30030  0.31042  1.0000
  C   C150      1.0  0.57980  0.31773  0.34182  1.0000
  O   O37       1.0  0.98118  0.19074  0.27791  1.0000
  O   O38       1.0  0.53500  0.32015  0.27832  1.0000
  H   H85       1.0  0.98671  0.19664  0.21409  1.0000
  H   H86       1.0  0.52946  0.31430  0.21448  1.0000
  C   C151      1.0  0.76722  0.24639  0.31485  1.0000
  C   C152      1.0  0.82042  0.24599  0.34176  1.0000
  C   C153      1.0  0.80298  0.26195  0.31031  1.0000
  C   C154      1.0  0.74901  0.26434  0.31480  1.0000
  C   C155      1.0  0.71325  0.24881  0.31007  1.0000
  C   C156      1.0  0.69582  0.26485  0.34099  1.0000
  O   O39       1.0  0.82279  0.29314  0.27783  1.0000
  O   O40       1.0  0.69341  0.21756  0.27806  1.0000
  H   H87       1.0  0.81687  0.29273  0.21402  1.0000
  H   H88       1.0  0.69927  0.21785  0.21423  1.0000
  C   C157      1.0  0.76708  0.02347  0.31480  1.0000
  C   C158      1.0  0.76757  0.07714  0.34133  1.0000
  C   C159      1.0  0.75155  0.04369  0.31021  1.0000
  C   C160      1.0  0.74912  0.48730  0.31494  1.0000
  C   C161      1.0  0.76466  0.46709  0.31040  1.0000
  C   C162      1.0  0.74872  0.43372  0.34202  1.0000
  O   O41       1.0  0.72030  0.03229  0.27812  1.0000
  O   O42       1.0  0.79585  0.47846  0.27795  1.0000
  H   H89       1.0  0.72062  0.02674  0.21429  1.0000
  H   H90       1.0  0.79546  0.48402  0.21416  1.0000
  C   C163      1.0  0.60826  0.23930  0.28008  1.0000
  C   C164      1.0  0.63902  0.23990  0.27492  1.0000
  C   C165      1.0  0.66073  0.25022  0.35027  1.0000
  H   H91       1.0  0.59597  0.23731  0.22109  1.0000
  O   O43       1.0  0.65056  0.23848  0.19167  1.0000
  H   H92       1.0  0.63788  0.21517  0.17249  1.0000
  C   C166      1.0  0.77396  0.37162  0.28003  1.0000
  C   C167      1.0  0.77343  0.40182  0.27510  1.0000
  C   C168      1.0  0.76329  0.41320  0.35091  1.0000
  H   H93       1.0  0.77587  0.36138  0.22080  1.0000
  O   O44       1.0  0.77462  0.41473  0.19195  1.0000
  H   H94       1.0  0.79786  0.42525  0.17216  1.0000
  C   C169      1.0  0.64184  0.40533  0.28103  1.0000
  C   C170      1.0  0.61168  0.37457  0.27584  1.0000
  C   C171      1.0  0.60025  0.35282  0.35111  1.0000
  H   H95       1.0  0.65214  0.41764  0.22205  1.0000
  O   O45       1.0  0.59873  0.36307  0.19257  1.0000
  H   H96       1.0  0.58812  0.37578  0.17342  1.0000
  C   C172      1.0  0.90787  0.27128  0.28066  1.0000
  C   C173      1.0  0.87715  0.27075  0.27538  1.0000
  C   C174      1.0  0.85550  0.26064  0.35092  1.0000
  H   H97       1.0  0.92012  0.27322  0.22158  1.0000
  O   O46       1.0  0.86556  0.27202  0.19211  1.0000
  H   H98       1.0  0.87825  0.29530  0.17259  1.0000
  C   C175      1.0  0.74203  0.13918  0.28045  1.0000
  C   C176      1.0  0.74264  0.10902  0.27526  1.0000
  C   C177      1.0  0.75292  0.09758  0.35059  1.0000
  H   H99       1.0  0.74005  0.14950  0.22148  1.0000
  O   O47       1.0  0.74125  0.09610  0.19199  1.0000
  H   H100      1.0  0.71793  0.08546  0.17279  1.0000
  C   C178      1.0  0.87427  0.10576  0.28002  1.0000
  C   C179      1.0  0.90447  0.13650  0.27495  1.0000
  C   C180      1.0  0.91590  0.15804  0.35070  1.0000
  H   H101      1.0  0.86400  0.09358  0.22085  1.0000
  O   O48       1.0  0.91734  0.14818  0.19175  1.0000
  H   H102      1.0  0.92790  0.13549  0.17201  1.0000
  C   C181      1.0  0.97145  0.26291  0.32976  1.0000
  C   C182      1.0  0.93738  0.24648  0.35181  1.0000
  C   C183      1.0  0.92119  0.21193  0.36304  1.0000
  H   H103      1.0  0.98278  0.28791  0.33501  1.0000
  H   H104      1.0  0.89629  0.19967  0.37765  1.0000
  C   C184      1.0  0.59505  0.29892  0.36249  1.0000
  C   C185      1.0  0.57886  0.26436  0.35137  1.0000
  C   C186      1.0  0.54479  0.24794  0.32926  1.0000
  H   H105      1.0  0.61995  0.31117  0.37713  1.0000
  H   H106      1.0  0.53344  0.22293  0.33460  1.0000
  C   C187      1.0  0.75063  0.21120  0.32949  1.0000
  C   C188      1.0  0.76707  0.19358  0.35172  1.0000
  C   C189      1.0  0.80163  0.21197  0.36289  1.0000
  H   H107      1.0  0.72563  0.19754  0.33488  1.0000
  H   H108      1.0  0.81389  0.19933  0.37754  1.0000
  C   C190      1.0  0.71463  0.29891  0.36166  1.0000
  C   C191      1.0  0.74920  0.31722  0.35085  1.0000
  C   C192      1.0  0.76562  0.29952  0.32961  1.0000
  H   H109      1.0  0.70238  0.31159  0.37604  1.0000
  H   H110      1.0  0.79063  0.31314  0.33509  1.0000
  C   C193      1.0  0.80226  0.04204  0.32951  1.0000
  C   C194      1.0  0.81996  0.07616  0.35102  1.0000
  C   C195      1.0  0.80162  0.09238  0.36211  1.0000
  H   H111      1.0  0.81590  0.03068  0.33497  1.0000
  H   H112      1.0  0.81430  0.11731  0.37648  1.0000
  C   C196      1.0  0.71472  0.41852  0.36332  1.0000
  C   C197      1.0  0.69633  0.43469  0.35223  1.0000
  C   C198      1.0  0.71394  0.46873  0.32974  1.0000
  H   H113      1.0  0.70208  0.39363  0.37817  1.0000
  H   H114      1.0  0.70029  0.48008  0.33509  1.0000
  C   C199      1.0  0.64848  0.25534  0.43264  1.0000
  C   C200      1.0  0.61802  0.25469  0.43787  1.0000
  C   C201      1.0  0.59818  0.24861  0.35979  1.0000
  O   O49       1.0  0.61112  0.26521  0.51645  1.0000
  H   H115      1.0  0.66360  0.26340  0.48816  1.0000
  H   H116      1.0  0.59054  0.24644  0.54005  1.0000
  C   C202      1.0  0.75843  0.39587  0.43320  1.0000
  C   C203      1.0  0.75910  0.36605  0.43805  1.0000
  C   C204      1.0  0.76502  0.35226  0.35982  1.0000
  O   O50       1.0  0.74870  0.34859  0.51658  1.0000
  H   H117      1.0  0.75045  0.40291  0.48891  1.0000
  H   H118      1.0  0.76753  0.34685  0.53997  1.0000
  C   C205      1.0  0.61766  0.36505  0.43345  1.0000
  C   C206      1.0  0.64750  0.39549  0.43873  1.0000
  C   C207      1.0  0.66126  0.41536  0.36070  1.0000
  O   O51       1.0  0.66492  0.40235  0.51730  1.0000
  H   H119      1.0  0.61060  0.34993  0.48896  1.0000
  H   H120      1.0  0.66675  0.42293  0.54098  1.0000
  C   C208      1.0  0.86784  0.25568  0.43336  1.0000
  C   C209      1.0  0.89829  0.25630  0.43864  1.0000
  C   C210      1.0  0.91810  0.26226  0.36064  1.0000
  O   O52       1.0  0.90521  0.24584  0.51728  1.0000
  H   H121      1.0  0.85274  0.24769  0.48891  1.0000
  H   H122      1.0  0.92578  0.26464  0.54082  1.0000
  C   C211      1.0  0.75806  0.11495  0.43297  1.0000
  C   C212      1.0  0.75741  0.14477  0.43832  1.0000
  C   C213      1.0  0.75132  0.15851  0.36026  1.0000
  O   O53       1.0  0.76794  0.16218  0.51690  1.0000
  H   H123      1.0  0.76611  0.10788  0.48849  1.0000
  H   H124      1.0  0.74920  0.16404  0.54048  1.0000
  C   C214      1.0  0.89862  0.14560  0.43309  1.0000
  C   C215      1.0  0.86882  0.11512  0.43813  1.0000
  C   C216      1.0  0.85501  0.09540  0.35996  1.0000
  O   O54       1.0  0.85140  0.10809  0.51672  1.0000
  H   H125      1.0  0.90570  0.16065  0.48874  1.0000
  H   H126      1.0  0.84963  0.08750  0.54008  1.0000
  C   C217      1.0  0.99003  0.74632  0.31488  1.0000
  C   C218      1.0  0.93639  0.69313  0.34166  1.0000
  C   C219      1.0  0.96980  0.71056  0.31027  1.0000
  C   C220      1.0  0.52620  0.76454  0.31478  1.0000
  C   C221      1.0  0.54640  0.80031  0.31042  1.0000
  C   C222      1.0  0.57980  0.81773  0.34182  1.0000
  O   O55       1.0  0.98118  0.69074  0.27791  1.0000
  O   O56       1.0  0.53500  0.82015  0.27832  1.0000
  H   H127      1.0  0.98671  0.69664  0.21409  1.0000
  H   H128      1.0  0.52946  0.81430  0.21448  1.0000
  C   C223      1.0  0.76722  0.74639  0.31485  1.0000
  C   C224      1.0  0.82042  0.74599  0.34176  1.0000
  C   C225      1.0  0.80298  0.76195  0.31031  1.0000
  C   C226      1.0  0.74901  0.76434  0.31480  1.0000
  C   C227      1.0  0.71325  0.74881  0.31007  1.0000
  C   C228      1.0  0.69582  0.76485  0.34099  1.0000
  O   O57       1.0  0.82279  0.79314  0.27783  1.0000
  O   O58       1.0  0.69341  0.71756  0.27806  1.0000
  H   H129      1.0  0.81687  0.79273  0.21402  1.0000
  H   H130      1.0  0.69927  0.71785  0.21423  1.0000
  C   C229      1.0  0.76708  0.52347  0.31480  1.0000
  C   C230      1.0  0.76757  0.57714  0.34133  1.0000
  C   C231      1.0  0.75155  0.54369  0.31021  1.0000
  C   C232      1.0  0.74911  0.98730  0.31494  1.0000
  C   C233      1.0  0.76466  0.96709  0.31040  1.0000
  C   C234      1.0  0.74872  0.93372  0.34202  1.0000
  O   O59       1.0  0.72031  0.53229  0.27812  1.0000
  O   O60       1.0  0.79585  0.97847  0.27795  1.0000
  H   H131      1.0  0.72062  0.52674  0.21429  1.0000
  H   H132      1.0  0.79547  0.98402  0.21416  1.0000
  C   C235      1.0  0.60826  0.73930  0.28008  1.0000
  C   C236      1.0  0.63902  0.73990  0.27492  1.0000
  C   C237      1.0  0.66073  0.75022  0.35027  1.0000
  H   H133      1.0  0.59596  0.73731  0.22109  1.0000
  O   O61       1.0  0.65056  0.73848  0.19167  1.0000
  H   H134      1.0  0.63788  0.71517  0.17249  1.0000
  C   C238      1.0  0.77396  0.87162  0.28003  1.0000
  C   C239      1.0  0.77343  0.90182  0.27510  1.0000
  C   C240      1.0  0.76329  0.91320  0.35091  1.0000
  H   H135      1.0  0.77587  0.86138  0.22080  1.0000
  O   O62       1.0  0.77462  0.91473  0.19195  1.0000
  H   H136      1.0  0.79786  0.92525  0.17216  1.0000
  C   C241      1.0  0.64184  0.90533  0.28103  1.0000
  C   C242      1.0  0.61168  0.87458  0.27584  1.0000
  C   C243      1.0  0.60025  0.85282  0.35111  1.0000
  H   H137      1.0  0.65214  0.91764  0.22205  1.0000
  O   O63       1.0  0.59873  0.86307  0.19257  1.0000
  H   H138      1.0  0.58812  0.87577  0.17342  1.0000
  C   C244      1.0  0.90787  0.77128  0.28066  1.0000
  C   C245      1.0  0.87715  0.77075  0.27538  1.0000
  C   C246      1.0  0.85550  0.76064  0.35092  1.0000
  H   H139      1.0  0.92012  0.77323  0.22158  1.0000
  O   O64       1.0  0.86556  0.77202  0.19211  1.0000
  H   H140      1.0  0.87825  0.79530  0.17259  1.0000
  C   C247      1.0  0.74203  0.63918  0.28045  1.0000
  C   C248      1.0  0.74264  0.60902  0.27526  1.0000
  C   C249      1.0  0.75292  0.59758  0.35059  1.0000
  H   H141      1.0  0.74005  0.64950  0.22148  1.0000
  O   O65       1.0  0.74125  0.59610  0.19199  1.0000
  H   H142      1.0  0.71793  0.58545  0.17279  1.0000
  C   C250      1.0  0.87427  0.60576  0.28002  1.0000
  C   C251      1.0  0.90447  0.63650  0.27495  1.0000
  C   C252      1.0  0.91590  0.65804  0.35070  1.0000
  H   H143      1.0  0.86400  0.59357  0.22085  1.0000
  O   O66       1.0  0.91734  0.64819  0.19175  1.0000
  H   H144      1.0  0.92790  0.63549  0.17201  1.0000
  C   C253      1.0  0.97145  0.76291  0.32976  1.0000
  C   C254      1.0  0.93737  0.74648  0.35181  1.0000
  C   C255      1.0  0.92119  0.71193  0.36304  1.0000
  H   H145      1.0  0.98278  0.78791  0.33501  1.0000
  H   H146      1.0  0.89629  0.69967  0.37765  1.0000
  C   C256      1.0  0.59505  0.79892  0.36249  1.0000
  C   C257      1.0  0.57886  0.76436  0.35137  1.0000
  C   C258      1.0  0.54479  0.74794  0.32926  1.0000
  H   H147      1.0  0.61995  0.81117  0.37713  1.0000
  H   H148      1.0  0.53344  0.72294  0.33460  1.0000
  C   C259      1.0  0.75062  0.71120  0.32949  1.0000
  C   C260      1.0  0.76707  0.69358  0.35172  1.0000
  C   C261      1.0  0.80163  0.71197  0.36290  1.0000
  H   H149      1.0  0.72562  0.69754  0.33488  1.0000
  H   H150      1.0  0.81389  0.69933  0.37754  1.0000
  C   C262      1.0  0.71463  0.79891  0.36166  1.0000
  C   C263      1.0  0.74920  0.81722  0.35085  1.0000
  C   C264      1.0  0.76562  0.79952  0.32961  1.0000
  H   H151      1.0  0.70238  0.81159  0.37604  1.0000
  H   H152      1.0  0.79063  0.81314  0.33509  1.0000
  C   C265      1.0  0.80226  0.54204  0.32951  1.0000
  C   C266      1.0  0.81996  0.57616  0.35102  1.0000
  C   C267      1.0  0.80162  0.59238  0.36211  1.0000
  H   H153      1.0  0.81590  0.53068  0.33497  1.0000
  H   H154      1.0  0.81430  0.61731  0.37648  1.0000
  C   C268      1.0  0.71471  0.91852  0.36332  1.0000
  C   C269      1.0  0.69632  0.93469  0.35223  1.0000
  C   C270      1.0  0.71394  0.96873  0.32974  1.0000
  H   H155      1.0  0.70208  0.89363  0.37817  1.0000
  H   H156      1.0  0.70028  0.98008  0.33509  1.0000
  C   C271      1.0  0.64848  0.75534  0.43264  1.0000
  C   C272      1.0  0.61802  0.75470  0.43787  1.0000
  C   C273      1.0  0.59818  0.74861  0.35979  1.0000
  O   O67       1.0  0.61113  0.76521  0.51645  1.0000
  H   H157      1.0  0.66360  0.76340  0.48816  1.0000
  H   H158      1.0  0.59054  0.74644  0.54005  1.0000
  C   C274      1.0  0.75843  0.89587  0.43320  1.0000
  C   C275      1.0  0.75910  0.86605  0.43805  1.0000
  C   C276      1.0  0.76502  0.85226  0.35982  1.0000
  O   O68       1.0  0.74870  0.84860  0.51658  1.0000
  H   H159      1.0  0.75046  0.90291  0.48891  1.0000
  H   H160      1.0  0.76753  0.84685  0.53997  1.0000
  C   C277      1.0  0.61766  0.86506  0.43345  1.0000
  C   C278      1.0  0.64750  0.89550  0.43873  1.0000
  C   C279      1.0  0.66126  0.91536  0.36070  1.0000
  O   O69       1.0  0.66492  0.90235  0.51730  1.0000
  H   H161      1.0  0.61060  0.84993  0.48896  1.0000
  H   H162      1.0  0.66674  0.92293  0.54098  1.0000
  C   C280      1.0  0.86784  0.75568  0.43336  1.0000
  C   C281      1.0  0.89829  0.75630  0.43864  1.0000
  C   C282      1.0  0.91810  0.76226  0.36064  1.0000
  O   O70       1.0  0.90521  0.74584  0.51728  1.0000
  H   H163      1.0  0.85274  0.74769  0.48891  1.0000
  H   H164      1.0  0.92578  0.76464  0.54082  1.0000
  C   C283      1.0  0.75805  0.61495  0.43297  1.0000
  C   C284      1.0  0.75741  0.64477  0.43832  1.0000
  C   C285      1.0  0.75132  0.65851  0.36026  1.0000
  O   O71       1.0  0.76794  0.66218  0.51690  1.0000
  H   H165      1.0  0.76611  0.60789  0.48849  1.0000
  H   H166      1.0  0.74920  0.66404  0.54048  1.0000
  C   C286      1.0  0.89862  0.64560  0.43309  1.0000
  C   C287      1.0  0.86881  0.61512  0.43813  1.0000
  C   C288      1.0  0.85501  0.59540  0.35996  1.0000
  O   O72       1.0  0.85140  0.60809  0.51672  1.0000
  H   H167      1.0  0.90570  0.66065  0.48874  1.0000
  H   H168      1.0  0.84963  0.58750  0.54008  1.0000
