data_image0
_chemical_formula_structural       CNCHCNCHCNCHCNCHCNCHCNCHNC2HNC2HNC2HNC2HNC2HNC2HCNCHCNCHCNCHCNCHCNCHCNCHC6H3C6H3C6H3C6H3C6H3C6H3C6H3C6H3C6H3C6H3C6H3C6H3NC2HNC2HNC2HNC2HNC2HNC2HCNCHCNCHCNCHCNCHCNCHCNCHNC2HNC2HNC2HNC2HNC2HNC2H
_chemical_formula_sum              "C144 N36 H72"
_cell_length_a       39.3093
_cell_length_b       39.3092
_cell_length_c       14.7749
_cell_angle_alpha    90
_cell_angle_beta     90
_cell_angle_gamma    120

_space_group_name_H-M_alt    "P 1"
_space_group_IT_number       1

loop_
  _space_group_symop_operation_xyz
  'x, y, z'

loop_
  _atom_site_type_symbol
  _atom_site_label
  _atom_site_symmetry_multiplicity
  _atom_site_fract_x
  _atom_site_fract_y
  _atom_site_fract_z
  _atom_site_occupancy
  C   C1        1.0  0.25433  0.46042  0.26719  1.0000
  N   N1        1.0  0.21997  0.46085  0.26943  1.0000
  C   C2        1.0  0.20192  0.46003  0.34855  1.0000
  H   H1        1.0  0.26718  0.46216  0.20590  1.0000
  C   C3        1.0  0.57736  0.81645  0.26718  1.0000
  N   N2        1.0  0.57693  0.78166  0.26938  1.0000
  C   C4        1.0  0.57774  0.76442  0.34851  1.0000
  H   H2        1.0  0.57563  0.82756  0.20589  1.0000
  C   C5        1.0  0.22131  0.78345  0.26721  1.0000
  N   N3        1.0  0.25610  0.81780  0.26940  1.0000
  C   C6        1.0  0.27335  0.83584  0.34852  1.0000
  H   H3        1.0  0.21019  0.77060  0.20593  1.0000
  C   C7        1.0  0.78102  0.57981  0.26722  1.0000
  N   N4        1.0  0.81538  0.57938  0.26943  1.0000
  C   C8        1.0  0.83346  0.58021  0.34853  1.0000
  H   H4        1.0  0.76817  0.57807  0.20593  1.0000
  C   C9        1.0  0.45799  0.22377  0.26723  1.0000
  N   N5        1.0  0.45842  0.25855  0.26945  1.0000
  C   C10       1.0  0.45759  0.27579  0.34857  1.0000
  H   H5        1.0  0.45975  0.21267  0.20594  1.0000
  C   C11       1.0  0.81400  0.25678  0.26723  1.0000
  N   N6        1.0  0.77920  0.22243  0.26945  1.0000
  C   C12       1.0  0.76196  0.20437  0.34857  1.0000
  H   H6        1.0  0.82510  0.26963  0.20594  1.0000
  N   N7        1.0  0.15143  0.60497  0.26919  1.0000
  C   C13       1.0  0.15200  0.57073  0.26704  1.0000
  C   C14       1.0  0.15208  0.55202  0.34851  1.0000
  H   H7        1.0  0.15038  0.55790  0.20579  1.0000
  N   N8        1.0  0.43280  0.56901  0.26914  1.0000
  C   C15       1.0  0.46704  0.60382  0.26696  1.0000
  C   C16       1.0  0.48579  0.62258  0.34842  1.0000
  H   H8        1.0  0.47986  0.61504  0.20571  1.0000
  N   N9        1.0  0.46875  0.88631  0.26914  1.0000
  C   C17       1.0  0.43395  0.88575  0.26696  1.0000
  C   C18       1.0  0.41519  0.88574  0.34842  1.0000
  H   H9        1.0  0.42272  0.88734  0.20571  1.0000
  N   N10       1.0  0.88386  0.43522  0.26913  1.0000
  C   C19       1.0  0.88329  0.46946  0.26698  1.0000
  C   C20       1.0  0.88328  0.48821  0.34844  1.0000
  H   H10       1.0  0.88489  0.48229  0.20572  1.0000
  N   N11       1.0  0.60256  0.47120  0.26917  1.0000
  C   C21       1.0  0.56832  0.43639  0.26697  1.0000
  C   C22       1.0  0.54957  0.41762  0.34841  1.0000
  H   H11       1.0  0.55549  0.42518  0.20571  1.0000
  N   N12       1.0  0.56657  0.15387  0.26915  1.0000
  C   C23       1.0  0.60136  0.15441  0.26697  1.0000
  C   C24       1.0  0.62011  0.15441  0.34844  1.0000
  H   H12       1.0  0.61257  0.15279  0.20572  1.0000
  C   C25       1.0  0.03673  0.40092  0.26736  1.0000
  N   N13       1.0  0.99683  0.38183  0.26980  1.0000
  C   C26       1.0  0.97631  0.37050  0.34872  1.0000
  H   H13       1.0  0.05041  0.41053  0.20620  1.0000
  C   C27       1.0  0.63689  0.65837  0.26737  1.0000
  N   N14       1.0  0.65596  0.63755  0.26980  1.0000
  C   C28       1.0  0.66729  0.62836  0.34872  1.0000
  H   H14       1.0  0.62727  0.66245  0.20621  1.0000
  C   C29       1.0  0.37940  0.00104  0.26737  1.0000
  N   N15       1.0  0.40023  0.04094  0.26980  1.0000
  C   C30       1.0  0.40942  0.06147  0.34872  1.0000
  H   H15       1.0  0.37533  0.98736  0.20621  1.0000
  C   C31       1.0  0.99861  0.63938  0.26727  1.0000
  N   N16       1.0  0.03852  0.65848  0.26966  1.0000
  C   C32       1.0  0.05901  0.66972  0.34861  1.0000
  H   H16       1.0  0.98491  0.62982  0.20611  1.0000
  C   C33       1.0  0.39842  0.38181  0.26730  1.0000
  N   N17       1.0  0.37933  0.40262  0.26979  1.0000
  C   C34       1.0  0.36804  0.41183  0.34874  1.0000
  H   H17       1.0  0.40801  0.37772  0.20612  1.0000
  C   C35       1.0  0.65596  0.03913  0.26735  1.0000
  N   N18       1.0  0.63514  0.99923  0.26980  1.0000
  C   C36       1.0  0.62592  0.97872  0.34874  1.0000
  H   H18       1.0  0.66005  0.05280  0.20617  1.0000
  C   C37       1.0  0.14548  0.51321  0.34846  1.0000
  C   C38       1.0  0.10656  0.48145  0.34848  1.0000
  C   C39       1.0  0.09854  0.44216  0.34848  1.0000
  C   C40       1.0  0.13035  0.43487  0.34851  1.0000
  C   C41       1.0  0.16964  0.46642  0.34846  1.0000
  C   C42       1.0  0.17687  0.50548  0.34844  1.0000
  H   H19       1.0  0.12485  0.40650  0.34857  1.0000
  H   H20       1.0  0.20519  0.52853  0.34844  1.0000
  H   H21       1.0  0.08371  0.48705  0.34853  1.0000
  C   C43       1.0  0.52459  0.65480  0.34846  1.0000
  C   C44       1.0  0.55636  0.64766  0.34850  1.0000
  C   C45       1.0  0.59564  0.67893  0.34851  1.0000
  C   C46       1.0  0.60292  0.71803  0.34854  1.0000
  C   C47       1.0  0.57135  0.72575  0.34846  1.0000
  C   C48       1.0  0.53230  0.69391  0.34842  1.0000
  H   H22       1.0  0.63128  0.74091  0.34859  1.0000
  H   H23       1.0  0.50924  0.69917  0.34838  1.0000
  H   H24       1.0  0.55077  0.61921  0.34853  1.0000
  C   C49       1.0  0.38297  0.89232  0.34846  1.0000
  C   C50       1.0  0.39010  0.93123  0.34850  1.0000
  C   C51       1.0  0.35884  0.93924  0.34851  1.0000
  C   C52       1.0  0.31974  0.90742  0.34854  1.0000
  C   C53       1.0  0.31202  0.86813  0.34847  1.0000
  C   C54       1.0  0.34386  0.86092  0.34842  1.0000
  H   H25       1.0  0.29686  0.91290  0.34859  1.0000
  H   H26       1.0  0.33860  0.83260  0.34839  1.0000
  H   H27       1.0  0.41856  0.95409  0.34853  1.0000
  C   C55       1.0  0.88988  0.52701  0.34849  1.0000
  C   C56       1.0  0.92880  0.55877  0.34851  1.0000
  C   C57       1.0  0.93683  0.59806  0.34851  1.0000
  C   C58       1.0  0.90503  0.60536  0.34853  1.0000
  C   C59       1.0  0.86574  0.57381  0.34848  1.0000
  C   C60       1.0  0.85849  0.53474  0.34846  1.0000
  H   H28       1.0  0.91053  0.63373  0.34855  1.0000
  H   H29       1.0  0.83018  0.51170  0.34844  1.0000
  H   H30       1.0  0.95165  0.55317  0.34852  1.0000
  C   C61       1.0  0.51077  0.38541  0.34845  1.0000
  C   C62       1.0  0.47900  0.39256  0.34845  1.0000
  C   C63       1.0  0.43972  0.36130  0.34848  1.0000
  C   C64       1.0  0.43242  0.32219  0.34853  1.0000
  C   C65       1.0  0.46398  0.31446  0.34848  1.0000
  C   C66       1.0  0.50304  0.34629  0.34844  1.0000
  H   H31       1.0  0.40406  0.29933  0.34859  1.0000
  H   H32       1.0  0.52609  0.34102  0.34844  1.0000
  H   H33       1.0  0.48460  0.42101  0.34846  1.0000
  C   C67       1.0  0.65234  0.14786  0.34845  1.0000
  C   C68       1.0  0.64523  0.10895  0.34846  1.0000
  C   C69       1.0  0.67651  0.10096  0.34847  1.0000
  C   C70       1.0  0.71561  0.13280  0.34852  1.0000
  C   C71       1.0  0.72330  0.17207  0.34848  1.0000
  C   C72       1.0  0.69145  0.17927  0.34845  1.0000
  H   H34       1.0  0.73849  0.12733  0.34857  1.0000
  H   H35       1.0  0.69669  0.20758  0.34845  1.0000
  H   H36       1.0  0.61679  0.08608  0.34846  1.0000
  C   C73       1.0  0.51077  0.14791  0.34844  1.0000
  C   C74       1.0  0.47897  0.10902  0.34851  1.0000
  C   C75       1.0  0.43974  0.10114  0.34853  1.0000
  C   C76       1.0  0.43252  0.13299  0.34857  1.0000
  C   C77       1.0  0.46414  0.17227  0.34847  1.0000
  C   C78       1.0  0.50317  0.17937  0.34840  1.0000
  H   H37       1.0  0.40419  0.12757  0.34865  1.0000
  H   H38       1.0  0.52626  0.20766  0.34837  1.0000
  H   H39       1.0  0.48450  0.08612  0.34854  1.0000
  C   C79       1.0  0.65239  0.52702  0.34845  1.0000
  C   C80       1.0  0.64530  0.55881  0.34852  1.0000
  C   C81       1.0  0.67665  0.59804  0.34854  1.0000
  C   C82       1.0  0.71572  0.60526  0.34857  1.0000
  C   C83       1.0  0.72338  0.57364  0.34847  1.0000
  C   C84       1.0  0.69145  0.53461  0.34841  1.0000
  H   H40       1.0  0.73863  0.63360  0.34865  1.0000
  H   H41       1.0  0.69665  0.51152  0.34838  1.0000
  H   H42       1.0  0.61686  0.55328  0.34856  1.0000
  C   C85       1.0  0.88987  0.38540  0.34844  1.0000
  C   C86       1.0  0.92875  0.39249  0.34851  1.0000
  C   C87       1.0  0.93663  0.36115  0.34854  1.0000
  C   C88       1.0  0.90478  0.32207  0.34858  1.0000
  C   C89       1.0  0.86551  0.31442  0.34847  1.0000
  C   C90       1.0  0.85840  0.34634  0.34840  1.0000
  H   H43       1.0  0.91020  0.29916  0.34867  1.0000
  H   H44       1.0  0.83011  0.34114  0.34836  1.0000
  H   H45       1.0  0.95165  0.42093  0.34854  1.0000
  C   C91       1.0  0.52457  0.89230  0.34847  1.0000
  C   C92       1.0  0.55637  0.93119  0.34855  1.0000
  C   C93       1.0  0.59560  0.93905  0.34857  1.0000
  C   C94       1.0  0.60280  0.90719  0.34858  1.0000
  C   C95       1.0  0.57118  0.86792  0.34847  1.0000
  C   C96       1.0  0.53216  0.86083  0.34840  1.0000
  H   H46       1.0  0.63114  0.91260  0.34865  1.0000
  H   H47       1.0  0.50906  0.83254  0.34835  1.0000
  H   H48       1.0  0.55085  0.95409  0.34859  1.0000
  C   C97       1.0  0.38298  0.51319  0.34846  1.0000
  C   C98       1.0  0.39005  0.48139  0.34855  1.0000
  C   C99       1.0  0.35869  0.44216  0.34857  1.0000
  C   C100      1.0  0.31963  0.43496  0.34858  1.0000
  C   C101      1.0  0.31198  0.46658  0.34846  1.0000
  C   C102      1.0  0.34392  0.50560  0.34840  1.0000
  H   H49       1.0  0.29670  0.40662  0.34865  1.0000
  H   H50       1.0  0.33873  0.52870  0.34834  1.0000
  H   H51       1.0  0.41848  0.48691  0.34859  1.0000
  C   C103      1.0  0.14546  0.65482  0.34848  1.0000
  C   C104      1.0  0.10657  0.64772  0.34851  1.0000
  C   C105      1.0  0.09869  0.67907  0.34852  1.0000
  C   C106      1.0  0.13054  0.71814  0.34854  1.0000
  C   C107      1.0  0.16981  0.72580  0.34849  1.0000
  C   C108      1.0  0.17692  0.69388  0.34846  1.0000
  H   H52       1.0  0.12511  0.74106  0.34857  1.0000
  H   H53       1.0  0.20521  0.69908  0.34844  1.0000
  H   H54       1.0  0.08367  0.61929  0.34853  1.0000
  N   N19       1.0  0.21996  0.46080  0.42764  1.0000
  C   C109      1.0  0.25433  0.46040  0.42983  1.0000
  C   C110      1.0  0.27315  0.46027  0.34851  1.0000
  H   H55       1.0  0.26716  0.46206  0.49111  1.0000
  N   N20       1.0  0.57695  0.78167  0.42763  1.0000
  C   C111      1.0  0.57735  0.81644  0.42983  1.0000
  C   C112      1.0  0.57749  0.83539  0.34851  1.0000
  H   H56       1.0  0.57568  0.82760  0.49111  1.0000
  N   N21       1.0  0.25610  0.81781  0.42763  1.0000
  C   C113      1.0  0.22132  0.78344  0.42982  1.0000
  C   C114      1.0  0.20231  0.76466  0.34852  1.0000
  H   H57       1.0  0.21017  0.77062  0.49111  1.0000
  N   N22       1.0  0.81540  0.57942  0.42762  1.0000
  C   C115      1.0  0.78103  0.57982  0.42983  1.0000
  C   C116      1.0  0.76223  0.57998  0.34853  1.0000
  H   H58       1.0  0.76821  0.57815  0.49112  1.0000
  N   N23       1.0  0.45836  0.25851  0.42767  1.0000
  C   C117      1.0  0.45795  0.22374  0.42985  1.0000
  C   C118      1.0  0.45781  0.20478  0.34854  1.0000
  H   H59       1.0  0.45962  0.21258  0.49113  1.0000
  N   N24       1.0  0.77925  0.22241  0.42767  1.0000
  C   C119      1.0  0.81403  0.25677  0.42985  1.0000
  C   C120      1.0  0.83299  0.27557  0.34854  1.0000
  H   H60       1.0  0.82519  0.26958  0.49113  1.0000
  C   C121      1.0  0.15190  0.57070  0.42993  1.0000
  N   N25       1.0  0.15131  0.60493  0.42771  1.0000
  C   C122      1.0  0.15200  0.62278  0.34843  1.0000
  H   H61       1.0  0.15014  0.55782  0.49119  1.0000
  C   C123      1.0  0.46712  0.60373  0.42987  1.0000
  N   N26       1.0  0.43290  0.56891  0.42767  1.0000
  C   C124      1.0  0.41502  0.55176  0.34840  1.0000
  H   H62       1.0  0.48003  0.61484  0.49112  1.0000
  C   C125      1.0  0.43404  0.88592  0.42988  1.0000
  N   N27       1.0  0.46885  0.88650  0.42767  1.0000
  C   C126      1.0  0.48600  0.88578  0.34840  1.0000
  H   H63       1.0  0.42292  0.88771  0.49113  1.0000
  C   C127      1.0  0.88346  0.46953  0.42989  1.0000
  N   N28       1.0  0.88405  0.43530  0.42767  1.0000
  C   C128      1.0  0.88333  0.41744  0.34839  1.0000
  H   H64       1.0  0.88526  0.48244  0.49114  1.0000
  C   C129      1.0  0.56824  0.43645  0.42988  1.0000
  N   N29       1.0  0.60247  0.47127  0.42768  1.0000
  C   C130      1.0  0.62035  0.48844  0.34843  1.0000
  H   H65       1.0  0.55534  0.42533  0.49113  1.0000
  C   C131      1.0  0.60130  0.15429  0.42991  1.0000
  N   N30       1.0  0.56649  0.15373  0.42771  1.0000
  C   C132      1.0  0.54935  0.15444  0.34842  1.0000
  H   H66       1.0  0.61242  0.15252  0.49115  1.0000
  N   N31       1.0  0.99686  0.38151  0.42759  1.0000
  C   C133      1.0  0.03676  0.40063  0.42989  1.0000
  C   C134      1.0  0.05862  0.41175  0.34862  1.0000
  H   H67       1.0  0.05051  0.40995  0.49106  1.0000
  N   N32       1.0  0.65629  0.63790  0.42760  1.0000
  C   C135      1.0  0.63718  0.65869  0.42990  1.0000
  C   C136      1.0  0.62606  0.66944  0.34864  1.0000
  H   H68       1.0  0.62786  0.66312  0.49109  1.0000
  N   N33       1.0  0.39988  0.04092  0.42759  1.0000
  C   C137      1.0  0.37908  0.00103  0.42990  1.0000
  C   C138      1.0  0.36834  0.97916  0.34863  1.0000
  H   H69       1.0  0.37465  0.98728  0.49108  1.0000
  N   N34       1.0  0.03851  0.65865  0.42754  1.0000
  C   C139      1.0  0.99861  0.63952  0.42987  1.0000
  C   C140      1.0  0.97677  0.62846  0.34857  1.0000
  H   H70       1.0  0.98486  0.63014  0.49104  1.0000
  N   N35       1.0  0.37908  0.40232  0.42760  1.0000
  C   C141      1.0  0.39821  0.38154  0.42988  1.0000
  C   C142      1.0  0.40931  0.37083  0.34856  1.0000
  H   H71       1.0  0.40756  0.37713  0.49104  1.0000
  N   N36       1.0  0.63544  0.99929  0.42759  1.0000
  C   C143      1.0  0.65624  0.03918  0.42983  1.0000
  C   C144      1.0  0.66705  0.06106  0.34856  1.0000
  H   H72       1.0  0.66064  0.05294  0.49100  1.0000
