data_image0
_chemical_formula_structural       C3NC3NC5NC5NC36H26C4O4C3NC3NC5NC5NC36H26C4O4C3NC3NC5NC5NC36H26C4O4C2H2C3HCOH3NHC2H2C3HCOH3NHC2H2C4HCOH3NHC2H2C3HCOH3NHC2H2C3HCOH3NHC2H2C4HCOH3NHC16H16C16H16C16H16C7H3COH3NHC7H3COH3NHC6H3COH3NHC7H3COH3NHC7H3COH3NHC6H3COH3NH
_chemical_formula_sum              "C300 N24 H210 O24"
_cell_length_a       75.0761
_cell_length_b       75.0762
_cell_length_c       15.0148
_cell_angle_alpha    89.9614
_cell_angle_beta     90.0386
_cell_angle_gamma    120

_space_group_name_H-M_alt    "P 1"
_space_group_IT_number       1

loop_
  _space_group_symop_operation_xyz
  'x, y, z'

loop_
  _atom_site_type_symbol
  _atom_site_label
  _atom_site_symmetry_multiplicity
  _atom_site_fract_x
  _atom_site_fract_y
  _atom_site_fract_z
  _atom_site_occupancy
  C   C1        1.0  0.01771  0.49271  0.30756  1.0000
  C   C2        1.0  0.03891  0.50398  0.30722  1.0000
  C   C3        1.0  0.04489  0.52485  0.30951  1.0000
  N   N1        1.0  0.02715  0.52544  0.31079  1.0000
  C   C4        1.0  0.01024  0.50643  0.30955  1.0000
  C   C5        1.0  0.98909  0.50066  0.31030  1.0000
  C   C6        1.0  0.98147  0.51456  0.31100  1.0000
  N   N2        1.0  0.99245  0.53532  0.31038  1.0000
  C   C7        1.0  0.98019  0.54370  0.31088  1.0000
  C   C8        1.0  0.96000  0.52724  0.31197  1.0000
  C   C9        1.0  0.96079  0.50927  0.31190  1.0000
  C   C10       1.0  0.98627  0.56490  0.31021  1.0000
  C   C11       1.0  0.00697  0.58137  0.30974  1.0000
  N   N3        1.0  0.02471  0.58077  0.31107  1.0000
  C   C12       1.0  0.04161  0.59978  0.30992  1.0000
  C   C13       1.0  0.03415  0.61351  0.30793  1.0000
  C   C14       1.0  0.01295  0.60224  0.30750  1.0000
  C   C15       1.0  0.06277  0.60556  0.31077  1.0000
  C   C16       1.0  0.07039  0.59166  0.31142  1.0000
  N   N4        1.0  0.05940  0.57090  0.31062  1.0000
  C   C17       1.0  0.07167  0.56252  0.31097  1.0000
  C   C18       1.0  0.09186  0.57898  0.31213  1.0000
  C   C19       1.0  0.09107  0.59695  0.31227  1.0000
  C   C20       1.0  0.06559  0.54132  0.31004  1.0000
  C   C21       1.0  0.08148  0.53625  0.30748  1.0000
  C   C22       1.0  0.09054  0.53601  0.22548  1.0000
  C   C23       1.0  0.10639  0.53122  0.22271  1.0000
  C   C24       1.0  0.11347  0.52640  0.30153  1.0000
  C   C25       1.0  0.12980  0.52194  0.29843  1.0000
  C   C26       1.0  0.16260  0.51293  0.28986  1.0000
  C   C27       1.0  0.16411  0.53038  0.24644  1.0000
  C   C28       1.0  0.14804  0.53483  0.25074  1.0000
  C   C29       1.0  0.07748  0.62693  0.31135  1.0000
  C   C30       1.0  0.08415  0.63806  0.23079  1.0000
  C   C31       1.0  0.09844  0.65926  0.23180  1.0000
  C   C32       1.0  0.10648  0.66983  0.31312  1.0000
  C   C33       1.0  0.12137  0.69121  0.31394  1.0000
  C   C34       1.0  0.11871  0.70548  0.26225  1.0000
  C   C35       1.0  0.13364  0.72652  0.26236  1.0000
  C   C36       1.0  0.15192  0.73395  0.31283  1.0000
  C   C37       1.0  0.97039  0.56999  0.30776  1.0000
  C   C38       1.0  0.93880  0.58040  0.30179  1.0000
  C   C39       1.0  0.94561  0.57528  0.22307  1.0000
  C   C40       1.0  0.96128  0.57022  0.22584  1.0000
  C   C41       1.0  0.92277  0.58531  0.29860  1.0000
  C   C42       1.0  0.90440  0.57264  0.25136  1.0000
  C   C43       1.0  0.88865  0.57755  0.24685  1.0000
  C   C44       1.0  0.89063  0.59526  0.28962  1.0000
  C   C45       1.0  0.97436  0.47929  0.31076  1.0000
  C   C46       1.0  0.96749  0.46826  0.23010  1.0000
  C   C47       1.0  0.95298  0.44710  0.23096  1.0000
  C   C48       1.0  0.94493  0.43651  0.31222  1.0000
  C   C49       1.0  0.92973  0.41523  0.31288  1.0000
  C   C50       1.0  0.89856  0.37270  0.31153  1.0000
  C   C51       1.0  0.91673  0.37986  0.26058  1.0000
  C   C52       1.0  0.93196  0.40080  0.26057  1.0000
  H   H1        1.0  0.91886  0.36998  0.22111  1.0000
  H   H2        1.0  0.94484  0.40537  0.22255  1.0000
  H   H3        1.0  0.94799  0.43961  0.17136  1.0000
  H   H4        1.0  0.97292  0.47556  0.17035  1.0000
  H   H5        1.0  0.00932  0.47700  0.30617  1.0000
  H   H6        1.0  0.04824  0.49769  0.30561  1.0000
  H   H7        1.0  0.02660  0.53793  0.31312  1.0000
  H   H8        1.0  0.02525  0.56828  0.31348  1.0000
  H   H9        1.0  0.94821  0.49482  0.31240  1.0000
  H   H10       1.0  0.94675  0.52795  0.31272  1.0000
  H   H11       1.0  0.96598  0.56671  0.16777  1.0000
  H   H12       1.0  0.93943  0.57548  0.16256  1.0000
  H   H13       1.0  0.00363  0.60853  0.30586  1.0000
  H   H14       1.0  0.04253  0.62921  0.30666  1.0000
  H   H15       1.0  0.10510  0.57828  0.31274  1.0000
  H   H16       1.0  0.10365  0.61140  0.31278  1.0000
  H   H17       1.0  0.07867  0.63080  0.17101  1.0000
  H   H18       1.0  0.10325  0.66684  0.17227  1.0000
  H   H19       1.0  0.13121  0.73628  0.22328  1.0000
  H   H20       1.0  0.10574  0.70070  0.22454  1.0000
  H   H21       1.0  0.14992  0.54778  0.21952  1.0000
  H   H22       1.0  0.17710  0.54029  0.21198  1.0000
  H   H23       1.0  0.11257  0.53107  0.16219  1.0000
  H   H24       1.0  0.08571  0.53939  0.16738  1.0000
  H   H25       1.0  0.90218  0.55952  0.22057  1.0000
  H   H26       1.0  0.87553  0.56779  0.21274  1.0000
  C   C53       1.0  0.16732  0.75518  0.31137  1.0000
  C   C54       1.0  0.17897  0.50853  0.28364  1.0000
  C   C55       1.0  0.88288  0.35158  0.31010  1.0000
  C   C56       1.0  0.87459  0.60013  0.28330  1.0000
  O   O1        1.0  0.16131  0.76912  0.29449  1.0000
  O   O2        1.0  0.19142  0.51589  0.21138  1.0000
  O   O3        1.0  0.88853  0.33738  0.29276  1.0000
  O   O4        1.0  0.86201  0.59286  0.21138  1.0000
  C   C57       1.0  0.58825  0.60891  0.30815  1.0000
  C   C58       1.0  0.57698  0.61885  0.30783  1.0000
  C   C59       1.0  0.55611  0.60396  0.31013  1.0000
  N   N5        1.0  0.55552  0.58562  0.31141  1.0000
  C   C60       1.0  0.57452  0.58772  0.31015  1.0000
  C   C61       1.0  0.58030  0.57234  0.31091  1.0000
  C   C62       1.0  0.56639  0.55082  0.31161  1.0000
  N   N6        1.0  0.54563  0.54105  0.31097  1.0000
  C   C63       1.0  0.53725  0.52040  0.31142  1.0000
  C   C64       1.0  0.55370  0.51666  0.31250  1.0000
  C   C65       1.0  0.57168  0.53543  0.31247  1.0000
  C   C66       1.0  0.51605  0.50529  0.31072  1.0000
  C   C67       1.0  0.49958  0.50951  0.31031  1.0000
  N   N7        1.0  0.50018  0.52786  0.31164  1.0000
  C   C68       1.0  0.48117  0.52575  0.31053  1.0000
  C   C69       1.0  0.46744  0.50456  0.30859  1.0000
  C   C70       1.0  0.47871  0.49463  0.30814  1.0000
  C   C71       1.0  0.47540  0.54113  0.31136  1.0000
  C   C72       1.0  0.48930  0.56265  0.31198  1.0000
  N   N8        1.0  0.51005  0.57242  0.31121  1.0000
  C   C73       1.0  0.51844  0.59307  0.31157  1.0000
  C   C74       1.0  0.50198  0.59680  0.31272  1.0000
  C   C75       1.0  0.48401  0.57804  0.31284  1.0000
  C   C76       1.0  0.53964  0.60818  0.31065  1.0000
  C   C77       1.0  0.54471  0.62915  0.30808  1.0000
  C   C78       1.0  0.54495  0.63846  0.22608  1.0000
  C   C79       1.0  0.54974  0.65910  0.22329  1.0000
  C   C80       1.0  0.55456  0.67098  0.30209  1.0000
  C   C81       1.0  0.55903  0.69178  0.29897  1.0000
  C   C82       1.0  0.56804  0.73359  0.29035  1.0000
  C   C83       1.0  0.55059  0.71766  0.24692  1.0000
  C   C84       1.0  0.54614  0.69714  0.25128  1.0000
  C   C85       1.0  0.45402  0.53447  0.31193  1.0000
  C   C86       1.0  0.44290  0.53004  0.23138  1.0000
  C   C87       1.0  0.42169  0.52313  0.23239  1.0000
  C   C88       1.0  0.41113  0.52058  0.31370  1.0000
  C   C89       1.0  0.38975  0.51409  0.31452  1.0000
  C   C90       1.0  0.37548  0.49718  0.26283  1.0000
  C   C91       1.0  0.35444  0.49108  0.26292  1.0000
  C   C92       1.0  0.34701  0.50192  0.31338  1.0000
  C   C93       1.0  0.51096  0.48431  0.30826  1.0000
  C   C94       1.0  0.50055  0.44231  0.30227  1.0000
  C   C95       1.0  0.50565  0.45427  0.22354  1.0000
  C   C96       1.0  0.51071  0.47499  0.22633  1.0000
  C   C97       1.0  0.49566  0.42139  0.29908  1.0000
  C   C98       1.0  0.50833  0.41570  0.25177  1.0000
  C   C99       1.0  0.50343  0.39505  0.24725  1.0000
  C   C100      1.0  0.48574  0.37931  0.29011  1.0000
  C   C101      1.0  0.60166  0.57898  0.31138  1.0000
  C   C102      1.0  0.61270  0.58316  0.23073  1.0000
  C   C103      1.0  0.63385  0.58980  0.23160  1.0000
  C   C104      1.0  0.64444  0.59230  0.31286  1.0000
  C   C105      1.0  0.66572  0.59838  0.31354  1.0000
  C   C106      1.0  0.70824  0.60972  0.31217  1.0000
  C   C107      1.0  0.70109  0.62075  0.26123  1.0000
  C   C108      1.0  0.68016  0.61506  0.26125  1.0000
  H   H27       1.0  0.71098  0.63278  0.22178  1.0000
  H   H28       1.0  0.67559  0.62338  0.22323  1.0000
  H   H29       1.0  0.64135  0.59233  0.17200  1.0000
  H   H30       1.0  0.60541  0.58132  0.17098  1.0000
  H   H31       1.0  0.60395  0.61623  0.30676  1.0000
  H   H32       1.0  0.58327  0.63446  0.30620  1.0000
  H   H33       1.0  0.54302  0.57258  0.31377  1.0000
  H   H34       1.0  0.51267  0.54089  0.31389  1.0000
  H   H35       1.0  0.58613  0.53729  0.31296  1.0000
  H   H36       1.0  0.55300  0.50272  0.31320  1.0000
  H   H37       1.0  0.51422  0.48322  0.16825  1.0000
  H   H38       1.0  0.50545  0.44790  0.16303  1.0000
  H   H39       1.0  0.47241  0.47901  0.30652  1.0000
  H   H40       1.0  0.45174  0.49724  0.30737  1.0000
  H   H41       1.0  0.50268  0.61075  0.31334  1.0000
  H   H42       1.0  0.46956  0.57617  0.31336  1.0000
  H   H43       1.0  0.45016  0.53183  0.17160  1.0000
  H   H44       1.0  0.41411  0.52036  0.17286  1.0000
  H   H45       1.0  0.34468  0.47890  0.22386  1.0000
  H   H46       1.0  0.38025  0.48899  0.22517  1.0000
  H   H47       1.0  0.53318  0.68607  0.22006  1.0000
  H   H48       1.0  0.54068  0.72075  0.21249  1.0000
  H   H49       1.0  0.54989  0.66545  0.16275  1.0000
  H   H50       1.0  0.54156  0.63026  0.16798  1.0000
  H   H51       1.0  0.52143  0.42661  0.22091  1.0000
  H   H52       1.0  0.51318  0.39171  0.21306  1.0000
  C   C109      1.0  0.32578  0.49609  0.31185  1.0000
  C   C110      1.0  0.57245  0.75437  0.28411  1.0000
  C   C111      1.0  0.72936  0.61516  0.31071  1.0000
  C   C112      1.0  0.48089  0.35840  0.28377  1.0000
  O   O5        1.0  0.31183  0.47613  0.29515  1.0000
  O   O6        1.0  0.56508  0.75947  0.21188  1.0000
  O   O7        1.0  0.74357  0.63500  0.29334  1.0000
  O   O8        1.0  0.48812  0.35311  0.21172  1.0000
  C   C113      1.0  0.47205  0.06325  0.30888  1.0000
  C   C114      1.0  0.46212  0.04204  0.30857  1.0000
  C   C115      1.0  0.47701  0.03606  0.31081  1.0000
  N   N9        1.0  0.49535  0.05381  0.31209  1.0000
  C   C116      1.0  0.49324  0.07071  0.31084  1.0000
  C   C117      1.0  0.50862  0.09187  0.31156  1.0000
  C   C118      1.0  0.53014  0.09949  0.31228  1.0000
  N   N10       1.0  0.53992  0.08850  0.31169  1.0000
  C   C119      1.0  0.56056  0.10077  0.31215  1.0000
  C   C120      1.0  0.56430  0.12095  0.31318  1.0000
  C   C121      1.0  0.54553  0.12017  0.31312  1.0000
  C   C122      1.0  0.57568  0.09469  0.31148  1.0000
  C   C123      1.0  0.57145  0.07398  0.31108  1.0000
  N   N11       1.0  0.55311  0.05624  0.31247  1.0000
  C   C124      1.0  0.55522  0.03934  0.31131  1.0000
  C   C125      1.0  0.57641  0.04680  0.30931  1.0000
  C   C126      1.0  0.58634  0.06801  0.30883  1.0000
  C   C127      1.0  0.53984  0.01818  0.31214  1.0000
  C   C128      1.0  0.51832  0.01056  0.31272  1.0000
  N   N12       1.0  0.50855  0.02155  0.31195  1.0000
  C   C129      1.0  0.48790  0.00929  0.31224  1.0000
  C   C130      1.0  0.48417  0.98910  0.31337  1.0000
  C   C131      1.0  0.50294  0.98988  0.31354  1.0000
  C   C132      1.0  0.47279  0.01537  0.31133  1.0000
  C   C133      1.0  0.45183  0.99947  0.30863  1.0000
  C   C134      1.0  0.44253  0.99045  0.22654  1.0000
  C   C135      1.0  0.42189  0.97460  0.22362  1.0000
  C   C136      1.0  0.40999  0.96748  0.30237  1.0000
  C   C137      1.0  0.38920  0.95115  0.29909  1.0000
  C   C138      1.0  0.34739  0.91837  0.29005  1.0000
  C   C139      1.0  0.36334  0.91688  0.24666  1.0000
  C   C140      1.0  0.38386  0.93295  0.25121  1.0000
  C   C141      1.0  0.54651  0.00347  0.31268  1.0000
  C   C142      1.0  0.55093  0.99680  0.23210  1.0000
  C   C143      1.0  0.55785  0.98251  0.23308  1.0000
  C   C144      1.0  0.56040  0.97447  0.31438  1.0000
  C   C145      1.0  0.56688  0.95957  0.31515  1.0000
  C   C146      1.0  0.58378  0.96222  0.26344  1.0000
  C   C147      1.0  0.58988  0.94728  0.26351  1.0000
  C   C148      1.0  0.57904  0.92900  0.31395  1.0000
  C   C149      1.0  0.59665  0.11056  0.30888  1.0000
  C   C150      1.0  0.63865  0.14215  0.30258  1.0000
  C   C151      1.0  0.62666  0.13530  0.22393  1.0000
  C   C152      1.0  0.60594  0.11964  0.22688  1.0000
  C   C153      1.0  0.65957  0.15818  0.29922  1.0000
  C   C154      1.0  0.66525  0.17653  0.25181  1.0000
  C   C155      1.0  0.68590  0.19228  0.24711  1.0000
  C   C156      1.0  0.70165  0.19032  0.28987  1.0000
  C   C157      1.0  0.50198  0.10659  0.31201  1.0000
  C   C158      1.0  0.49779  0.11346  0.23135  1.0000
  C   C159      1.0  0.49114  0.12796  0.23220  1.0000
  C   C160      1.0  0.48864  0.13603  0.31346  1.0000
  C   C161      1.0  0.48256  0.15123  0.31412  1.0000
  C   C162      1.0  0.47121  0.18241  0.31274  1.0000
  C   C163      1.0  0.46018  0.16424  0.26179  1.0000
  C   C164      1.0  0.46588  0.14900  0.26183  1.0000
  H   H53       1.0  0.44815  0.16210  0.22234  1.0000
  H   H54       1.0  0.45756  0.13612  0.22381  1.0000
  H   H55       1.0  0.48862  0.13296  0.17260  1.0000
  H   H56       1.0  0.49964  0.10803  0.17160  1.0000
  H   H57       1.0  0.46473  0.07163  0.30752  1.0000
  H   H58       1.0  0.44650  0.03272  0.30698  1.0000
  H   H59       1.0  0.50839  0.05435  0.31430  1.0000
  H   H60       1.0  0.54008  0.05570  0.31487  1.0000
  H   H61       1.0  0.54367  0.13275  0.31354  1.0000
  H   H62       1.0  0.57824  0.13420  0.31385  1.0000
  H   H63       1.0  0.59769  0.11492  0.16885  1.0000
  H   H64       1.0  0.63301  0.14147  0.16338  1.0000
  H   H65       1.0  0.60196  0.07733  0.30712  1.0000
  H   H66       1.0  0.58374  0.03843  0.30796  1.0000
  H   H67       1.0  0.47023  0.97585  0.31396  1.0000
  H   H68       1.0  0.50481  0.97730  0.31405  1.0000
  H   H69       1.0  0.54913  0.00228  0.17234  1.0000
  H   H70       1.0  0.56059  0.97770  0.17353  1.0000
  H   H71       1.0  0.60205  0.94970  0.22440  1.0000
  H   H72       1.0  0.59197  0.97519  0.22576  1.0000
  H   H73       1.0  0.39493  0.93108  0.21997  1.0000
  H   H74       1.0  0.36026  0.90391  0.21204  1.0000
  H   H75       1.0  0.41556  0.96845  0.16303  1.0000
  H   H76       1.0  0.45074  0.99530  0.16849  1.0000
  H   H77       1.0  0.65432  0.17874  0.22107  1.0000
  H   H78       1.0  0.68923  0.20539  0.21292  1.0000
  C   C165      1.0  0.58486  0.91359  0.31238  1.0000
  C   C166      1.0  0.32661  0.90202  0.28356  1.0000
  C   C167      1.0  0.46577  0.19809  0.31125  1.0000
  C   C168      1.0  0.72256  0.20637  0.28336  1.0000
  O   O9        1.0  0.60482  0.91960  0.29565  1.0000
  O   O10       1.0  0.32154  0.88959  0.21126  1.0000
  O   O11       1.0  0.44593  0.19246  0.29388  1.0000
  O   O12       1.0  0.72782  0.21891  0.21132  1.0000
  C   C169      1.0  0.22512  0.48949  0.27495  1.0000
  C   C170      1.0  0.20615  0.48890  0.27788  1.0000
  H   H79       1.0  0.22860  0.48379  0.21981  1.0000
  H   H80       1.0  0.19621  0.48261  0.22549  1.0000
  C   C171      1.0  0.29948  0.50626  0.31846  1.0000
  C   C172      1.0  0.29466  0.52016  0.27617  1.0000
  C   C173      1.0  0.27490  0.51812  0.28171  1.0000
  H   H81       1.0  0.30599  0.53206  0.24070  1.0000
  C   C174      1.0  0.27049  0.53331  0.23668  1.0000
  O   O13       1.0  0.28738  0.55038  0.19298  1.0000
  H   H82       1.0  0.26396  0.53939  0.28490  1.0000
  H   H83       1.0  0.25891  0.52517  0.18540  1.0000
  H   H84       1.0  0.29688  0.55956  0.23902  1.0000
  N   N13       1.0  0.31944  0.51021  0.31705  1.0000
  H   H85       1.0  0.33006  0.52468  0.31429  1.0000
  C   C175      1.0  0.59146  0.81955  0.27550  1.0000
  C   C176      1.0  0.59206  0.80117  0.27842  1.0000
  H   H86       1.0  0.59717  0.82874  0.22037  1.0000
  H   H87       1.0  0.59835  0.79753  0.22604  1.0000
  C   C177      1.0  0.57469  0.87712  0.31902  1.0000
  C   C178      1.0  0.56079  0.85841  0.27673  1.0000
  C   C179      1.0  0.56283  0.84069  0.28226  1.0000
  H   H88       1.0  0.54889  0.85785  0.24126  1.0000
  C   C180      1.0  0.54764  0.82110  0.23723  1.0000
  O   O14       1.0  0.53057  0.82094  0.19353  1.0000
  H   H89       1.0  0.54156  0.80848  0.28546  1.0000
  H   H90       1.0  0.55579  0.81768  0.18596  1.0000
  H   H91       1.0  0.52140  0.82125  0.23957  1.0000
  N   N14       1.0  0.57074  0.89313  0.31762  1.0000
  H   H92       1.0  0.55627  0.88928  0.31485  1.0000
  C   C181      1.0  0.26143  0.85583  0.27471  1.0000
  C   C182      1.0  0.27982  0.87479  0.27775  1.0000
  H   H93       1.0  0.25226  0.85238  0.21951  1.0000
  H   H94       1.0  0.28349  0.88474  0.22538  1.0000
  C   C183      1.0  0.23891  0.82149  0.33121  1.0000
  C   C184      1.0  0.20379  0.78147  0.31788  1.0000
  C   C185      1.0  0.22251  0.78630  0.27565  1.0000
  C   C186      1.0  0.24024  0.80605  0.28127  1.0000
  H   H95       1.0  0.22308  0.77497  0.24017  1.0000
  C   C187      1.0  0.25984  0.81047  0.23633  1.0000
  O   O15       1.0  0.26000  0.79357  0.19260  1.0000
  H   H96       1.0  0.27244  0.81698  0.28461  1.0000
  H   H97       1.0  0.26327  0.82206  0.18509  1.0000
  H   H98       1.0  0.25967  0.78406  0.23862  1.0000
  N   N15       1.0  0.18779  0.76152  0.31642  1.0000
  H   H99       1.0  0.19164  0.75090  0.31366  1.0000
  C   C188      1.0  0.82921  0.62016  0.27493  1.0000
  C   C189      1.0  0.84804  0.62047  0.27770  1.0000
  H   H100      1.0  0.82580  0.62594  0.21978  1.0000
  H   H101      1.0  0.85796  0.62662  0.22519  1.0000
  C   C190      1.0  0.75521  0.60441  0.31847  1.0000
  C   C191      1.0  0.75974  0.59027  0.27662  1.0000
  C   C192      1.0  0.77938  0.59201  0.28225  1.0000
  H   H102      1.0  0.74830  0.57843  0.24134  1.0000
  C   C193      1.0  0.78350  0.57660  0.23758  1.0000
  O   O16       1.0  0.76645  0.55963  0.19416  1.0000
  H   H103      1.0  0.78990  0.57041  0.28598  1.0000
  H   H104      1.0  0.79509  0.58459  0.18621  1.0000
  H   H105      1.0  0.75690  0.55057  0.24034  1.0000
  N   N16       1.0  0.73537  0.60079  0.31685  1.0000
  H   H106      1.0  0.72458  0.58638  0.31455  1.0000
  C   C194      1.0  0.46082  0.29298  0.27553  1.0000
  C   C195      1.0  0.46054  0.31152  0.27830  1.0000
  H   H107      1.0  0.45504  0.28382  0.22035  1.0000
  H   H108      1.0  0.45442  0.31532  0.22576  1.0000
  C   C196      1.0  0.47652  0.23468  0.31901  1.0000
  C   C197      1.0  0.49067  0.25336  0.27719  1.0000
  C   C198      1.0  0.48892  0.27126  0.28285  1.0000
  H   H109      1.0  0.50251  0.25378  0.24192  1.0000
  C   C199      1.0  0.50434  0.29081  0.23822  1.0000
  O   O17       1.0  0.52132  0.29074  0.19481  1.0000
  H   H110      1.0  0.51053  0.30338  0.28664  1.0000
  H   H111      1.0  0.49637  0.29443  0.18683  1.0000
  H   H112      1.0  0.53037  0.29023  0.24101  1.0000
  N   N17       1.0  0.48014  0.21846  0.31740  1.0000
  H   H113      1.0  0.49455  0.22208  0.31510  1.0000
  C   C200      1.0  0.78797  0.25174  0.27476  1.0000
  C   C201      1.0  0.76943  0.23293  0.27766  1.0000
  H   H114      1.0  0.79712  0.25513  0.21954  1.0000
  H   H115      1.0  0.76562  0.22300  0.22516  1.0000
  C   C202      1.0  0.81083  0.28597  0.33147  1.0000
  C   C203      1.0  0.84629  0.32574  0.31785  1.0000
  C   C204      1.0  0.82760  0.32120  0.27607  1.0000
  C   C205      1.0  0.80971  0.30157  0.28182  1.0000
  H   H116      1.0  0.82719  0.33264  0.24075  1.0000
  C   C206      1.0  0.79015  0.29745  0.23724  1.0000
  O   O18       1.0  0.79022  0.31449  0.19377  1.0000
  H   H117      1.0  0.77759  0.29106  0.28571  1.0000
  H   H118      1.0  0.78651  0.28584  0.18591  1.0000
  H   H119      1.0  0.79073  0.32405  0.23993  1.0000
  N   N18       1.0  0.86251  0.34558  0.31615  1.0000
  H   H120      1.0  0.85889  0.35637  0.31381  1.0000
  C   C207      1.0  0.10412  0.52643  0.38335  1.0000
  C   C208      1.0  0.08837  0.53139  0.38644  1.0000
  C   C209      1.0  0.12823  0.50450  0.34203  1.0000
  C   C210      1.0  0.14432  0.50004  0.33753  1.0000
  C   C211      1.0  0.09966  0.65851  0.39351  1.0000
  C   C212      1.0  0.08528  0.63733  0.39278  1.0000
  C   C213      1.0  0.15438  0.71969  0.36560  1.0000
  C   C214      1.0  0.13938  0.69871  0.36618  1.0000
  C   C215      1.0  0.96372  0.57509  0.38665  1.0000
  C   C216      1.0  0.94817  0.58033  0.38354  1.0000
  C   C217      1.0  0.90906  0.60793  0.33683  1.0000
  C   C218      1.0  0.92482  0.60301  0.34154  1.0000
  C   C219      1.0  0.96658  0.46885  0.39216  1.0000
  C   C220      1.0  0.95198  0.44774  0.39273  1.0000
  C   C221      1.0  0.91181  0.40800  0.36552  1.0000
  C   C222      1.0  0.89652  0.38712  0.36483  1.0000
  H   H121      1.0  0.88393  0.38258  0.40476  1.0000
  H   H122      1.0  0.90949  0.41795  0.40369  1.0000
  H   H123      1.0  0.94672  0.44057  0.45284  1.0000
  H   H124      1.0  0.97143  0.47655  0.45141  1.0000
  H   H125      1.0  0.97013  0.57501  0.44674  1.0000
  H   H126      1.0  0.94344  0.58367  0.44193  1.0000
  H   H127      1.0  0.08054  0.62958  0.45198  1.0000
  H   H128      1.0  0.10490  0.66565  0.45366  1.0000
  H   H129      1.0  0.14200  0.68889  0.40390  1.0000
  H   H130      1.0  0.16706  0.72443  0.40516  1.0000
  H   H131      1.0  0.08204  0.53153  0.44662  1.0000
  H   H132      1.0  0.10905  0.52333  0.44182  1.0000
  H   H133      1.0  0.14228  0.48694  0.36782  1.0000
  H   H134      1.0  0.11511  0.49458  0.37569  1.0000
  H   H135      1.0  0.93808  0.61279  0.37476  1.0000
  H   H136      1.0  0.91145  0.62120  0.36661  1.0000
  C   C223      1.0  0.55453  0.66158  0.38392  1.0000
  C   C224      1.0  0.54957  0.64087  0.38704  1.0000
  C   C225      1.0  0.57647  0.70764  0.34253  1.0000
  C   C226      1.0  0.58093  0.72819  0.33803  1.0000
  C   C227      1.0  0.42245  0.52507  0.39410  1.0000
  C   C228      1.0  0.44362  0.53185  0.39338  1.0000
  C   C229      1.0  0.36127  0.51861  0.36616  1.0000
  C   C230      1.0  0.38224  0.52460  0.36670  1.0000
  C   C231      1.0  0.50587  0.47253  0.38716  1.0000
  C   C232      1.0  0.50063  0.45174  0.38403  1.0000
  C   C233      1.0  0.47307  0.38504  0.33744  1.0000
  C   C234      1.0  0.47798  0.40572  0.34208  1.0000
  C   C235      1.0  0.61210  0.58160  0.39278  1.0000
  C   C236      1.0  0.63321  0.58812  0.39337  1.0000
  C   C237      1.0  0.67295  0.58767  0.36615  1.0000
  C   C238      1.0  0.69382  0.59324  0.36546  1.0000
  H   H137      1.0  0.69835  0.58518  0.40537  1.0000
  H   H138      1.0  0.66299  0.57539  0.40431  1.0000
  H   H139      1.0  0.64037  0.58999  0.45348  1.0000
  H   H140      1.0  0.60440  0.57873  0.45204  1.0000
  H   H141      1.0  0.50596  0.47900  0.44725  1.0000
  H   H142      1.0  0.49731  0.44366  0.44243  1.0000
  H   H143      1.0  0.45138  0.53485  0.45257  1.0000
  H   H144      1.0  0.41531  0.52315  0.45424  1.0000
  H   H145      1.0  0.39207  0.53702  0.40449  1.0000
  H   H146      1.0  0.35653  0.52655  0.40571  1.0000
  H   H147      1.0  0.54944  0.63439  0.44721  1.0000
  H   H148      1.0  0.55764  0.66961  0.44238  1.0000
  H   H149      1.0  0.59403  0.73924  0.36832  1.0000
  H   H150      1.0  0.58639  0.70442  0.37622  1.0000
  H   H151      1.0  0.46819  0.40918  0.37537  1.0000
  H   H152      1.0  0.45981  0.37414  0.36720  1.0000
  C   C239      1.0  0.41937  0.97679  0.38427  1.0000
  C   C240      1.0  0.44008  0.99255  0.38752  1.0000
  C   C241      1.0  0.37333  0.95270  0.34269  1.0000
  C   C242      1.0  0.35277  0.93662  0.33793  1.0000
  C   C243      1.0  0.55592  0.98128  0.39479  1.0000
  C   C244      1.0  0.54913  0.99566  0.39410  1.0000
  C   C245      1.0  0.56235  0.92655  0.36674  1.0000
  C   C246      1.0  0.55637  0.94155  0.36737  1.0000
  C   C247      1.0  0.60846  0.11726  0.38769  1.0000
  C   C248      1.0  0.62925  0.13281  0.38442  1.0000
  C   C249      1.0  0.69594  0.17193  0.33725  1.0000
  C   C250      1.0  0.67525  0.15615  0.34210  1.0000
  C   C251      1.0  0.49936  0.11439  0.39340  1.0000
  C   C252      1.0  0.49284  0.12898  0.39397  1.0000
  C   C253      1.0  0.49326  0.16915  0.36674  1.0000
  C   C254      1.0  0.48769  0.18445  0.36604  1.0000
  H   H153      1.0  0.49575  0.19704  0.40592  1.0000
  H   H154      1.0  0.50555  0.17147  0.40487  1.0000
  H   H155      1.0  0.49096  0.13425  0.45407  1.0000
  H   H156      1.0  0.50222  0.10954  0.45267  1.0000
  H   H157      1.0  0.60201  0.11087  0.44784  1.0000
  H   H158      1.0  0.63736  0.13756  0.44275  1.0000
  H   H159      1.0  0.54614  0.00040  0.45331  1.0000
  H   H160      1.0  0.55783  0.97603  0.45493  1.0000
  H   H161      1.0  0.54395  0.93893  0.40512  1.0000
  H   H162      1.0  0.55441  0.91387  0.40630  1.0000
  H   H163      1.0  0.44654  0.99886  0.44774  1.0000
  H   H164      1.0  0.41133  0.97185  0.44268  1.0000
  H   H165      1.0  0.34171  0.93865  0.36818  1.0000
  H   H166      1.0  0.37652  0.96581  0.37642  1.0000
  H   H167      1.0  0.67180  0.14292  0.37546  1.0000
  H   H168      1.0  0.70684  0.16956  0.36698  1.0000
  C   C255      1.0  0.20121  0.49768  0.35001  1.0000
  C   C256      1.0  0.21511  0.50570  0.42213  1.0000
  C   C257      1.0  0.23446  0.50671  0.42035  1.0000
  C   C258      1.0  0.23959  0.49881  0.34439  1.0000
  C   C259      1.0  0.25946  0.50134  0.33161  1.0000
  C   C260      1.0  0.26411  0.48739  0.37419  1.0000
  C   C261      1.0  0.28391  0.48992  0.36822  1.0000
  H   H169      1.0  0.25329  0.47560  0.41216  1.0000
  H   H170      1.0  0.28707  0.48018  0.40345  1.0000
  H   H171      1.0  0.21156  0.51210  0.47454  1.0000
  C   C262      1.0  0.24854  0.51678  0.49730  1.0000
  O   O19       1.0  0.23970  0.50466  0.57570  1.0000
  H   H172      1.0  0.26375  0.51857  0.48694  1.0000
  H   H173      1.0  0.25067  0.53218  0.50667  1.0000
  H   H174      1.0  0.24900  0.51182  0.62587  1.0000
  N   N19       1.0  0.18372  0.49915  0.34999  1.0000
  H   H175      1.0  0.17680  0.49714  0.40711  1.0000
  C   C263      1.0  0.58328  0.78743  0.35055  1.0000
  C   C264      1.0  0.57525  0.79328  0.42267  1.0000
  C   C265      1.0  0.57424  0.81162  0.42090  1.0000
  C   C266      1.0  0.58215  0.82468  0.34495  1.0000
  C   C267      1.0  0.57961  0.84202  0.33217  1.0000
  C   C268      1.0  0.59357  0.86062  0.37475  1.0000
  C   C269      1.0  0.59103  0.87788  0.36877  1.0000
  H   H176      1.0  0.60535  0.86157  0.41272  1.0000
  H   H177      1.0  0.60077  0.89077  0.40402  1.0000
  H   H178      1.0  0.56886  0.78332  0.47507  1.0000
  C   C270      1.0  0.56417  0.81562  0.49785  1.0000
  O   O20       1.0  0.57629  0.81887  0.57624  1.0000
  H   H179      1.0  0.56238  0.82903  0.48750  1.0000
  H   H180      1.0  0.54878  0.80234  0.50721  1.0000
  H   H181      1.0  0.56913  0.82100  0.62641  1.0000
  N   N20       1.0  0.58181  0.76847  0.35052  1.0000
  H   H182      1.0  0.58382  0.76354  0.40764  1.0000
  C   C271      1.0  0.29353  0.87970  0.34998  1.0000
  C   C272      1.0  0.28763  0.86579  0.42208  1.0000
  C   C273      1.0  0.26928  0.84645  0.42018  1.0000
  C   C274      1.0  0.25625  0.84135  0.34413  1.0000
  C   C275      1.0  0.22030  0.81683  0.37371  1.0000
  C   C276      1.0  0.20303  0.79704  0.36764  1.0000
  H   H183      1.0  0.21934  0.82765  0.41170  1.0000
  H   H184      1.0  0.19013  0.79388  0.40284  1.0000
  H   H185      1.0  0.29757  0.86931  0.47454  1.0000
  C   C277      1.0  0.26523  0.83235  0.49709  1.0000
  O   O21       1.0  0.26196  0.84118  0.57547  1.0000
  H   H186      1.0  0.25181  0.81715  0.48665  1.0000
  H   H187      1.0  0.27849  0.83020  0.50655  1.0000
  H   H188      1.0  0.25981  0.83187  0.62563  1.0000
  N   N21       1.0  0.31252  0.89716  0.35007  1.0000
  H   H189      1.0  0.31741  0.90407  0.40722  1.0000
  C   C278      1.0  0.85286  0.61156  0.34983  1.0000
  C   C279      1.0  0.83900  0.60371  0.42211  1.0000
  C   C280      1.0  0.81978  0.60299  0.42048  1.0000
  C   C281      1.0  0.81476  0.61101  0.34453  1.0000
  C   C282      1.0  0.79498  0.60873  0.33184  1.0000
  C   C283      1.0  0.79061  0.62291  0.37407  1.0000
  C   C284      1.0  0.77093  0.62066  0.36798  1.0000
  H   H190      1.0  0.80156  0.63465  0.41179  1.0000
  H   H191      1.0  0.76798  0.63058  0.40289  1.0000
  H   H192      1.0  0.84245  0.59721  0.47449  1.0000
  C   C285      1.0  0.80570  0.59308  0.49757  1.0000
  O   O22       1.0  0.81473  0.60515  0.57590  1.0000
  H   H193      1.0  0.79059  0.59153  0.48739  1.0000
  H   H194      1.0  0.80334  0.57759  0.50693  1.0000
  H   H195      1.0  0.80543  0.59808  0.62616  1.0000
  N   N22       1.0  0.87016  0.60976  0.34959  1.0000
  H   H196      1.0  0.87711  0.61170  0.40660  1.0000
  C   C286      1.0  0.46946  0.32522  0.35045  1.0000
  C   C287      1.0  0.47728  0.31916  0.42275  1.0000
  C   C288      1.0  0.47796  0.30065  0.42114  1.0000
  C   C289      1.0  0.46994  0.28764  0.34515  1.0000
  C   C290      1.0  0.47221  0.27014  0.33242  1.0000
  C   C291      1.0  0.45802  0.25157  0.37461  1.0000
  C   C292      1.0  0.46026  0.23413  0.36850  1.0000
  H   H197      1.0  0.44628  0.25076  0.41233  1.0000
  H   H198      1.0  0.45034  0.22125  0.40339  1.0000
  H   H199      1.0  0.48379  0.32909  0.47514  1.0000
  C   C293      1.0  0.48785  0.29643  0.49824  1.0000
  O   O23       1.0  0.47578  0.29339  0.57655  1.0000
  H   H200      1.0  0.48938  0.28286  0.48806  1.0000
  H   H201      1.0  0.50335  0.30955  0.50760  1.0000
  H   H202      1.0  0.48284  0.29112  0.62683  1.0000
  N   N23       1.0  0.47132  0.34435  0.35018  1.0000
  H   H203      1.0  0.46936  0.34933  0.40718  1.0000
  C   C294      1.0  0.75576  0.22815  0.34989  1.0000
  C   C295      1.0  0.76184  0.24202  0.42212  1.0000
  C   C296      1.0  0.78034  0.26122  0.42036  1.0000
  C   C297      1.0  0.79334  0.26621  0.34431  1.0000
  C   C298      1.0  0.82941  0.29035  0.37361  1.0000
  C   C299      1.0  0.84685  0.31002  0.36740  1.0000
  H   H204      1.0  0.83022  0.27941  0.41137  1.0000
  H   H205      1.0  0.85974  0.31298  0.40227  1.0000
  H   H206      1.0  0.75192  0.23860  0.47456  1.0000
  C   C300      1.0  0.78458  0.27532  0.49741  1.0000
  O   O24       1.0  0.78766  0.26630  0.57573  1.0000
  H   H207      1.0  0.79815  0.29042  0.48712  1.0000
  H   H208      1.0  0.77147  0.27771  0.50683  1.0000
  H   H209      1.0  0.78994  0.27562  0.62596  1.0000
  N   N24       1.0  0.73663  0.21088  0.34974  1.0000
  H   H210      1.0  0.73167  0.20393  0.40678  1.0000
