data_image0
_chemical_formula_structural       CNHC4HCNHC4HC2HC2HN4CNCHNHCNCHNHCNHC2NCNCNCNC4HC6H3C4HC6H3C4HCHCNCHNHCNCHNHCNHC2NCNCNCNC4HC6H3C4HC6H3C4HCHCNCHNHCNCHNHCNCHNHCNCNCNCNCNCNC4HC6H3C4HC6H3C4HC6H3CNCHNHCNCHNHCNCHNHCNCNCNCNCNCNC4HC6H3C4HC6H3C4HC6H3
_chemical_formula_sum              "C168 N48 H72"
_cell_length_a       43.6085
_cell_length_b       43.6085
_cell_length_c       14.8904
_cell_angle_alpha    90
_cell_angle_beta     90
_cell_angle_gamma    120

_space_group_name_H-M_alt    "P 1"
_space_group_IT_number       1

loop_
  _space_group_symop_operation_xyz
  'x, y, z'

loop_
  _atom_site_type_symbol
  _atom_site_label
  _atom_site_symmetry_multiplicity
  _atom_site_fract_x
  _atom_site_fract_y
  _atom_site_fract_z
  _atom_site_occupancy
  C   C1        1.0  0.07887  0.29036  0.26171  1.0000
  N   N1        1.0  0.04294  0.27239  0.26526  1.0000
  H   H1        1.0  0.09103  0.29644  0.20036  1.0000
  C   C2        1.0  0.02425  0.26305  0.34342  1.0000
  C   C3        1.0  0.08048  0.29116  0.42429  1.0000
  C   C4        1.0  0.04305  0.27245  0.42621  1.0000
  C   C5        1.0  0.02406  0.26295  0.50786  1.0000
  H   H2        1.0  0.03717  0.26950  0.56802  1.0000
  C   C6        1.0  0.07887  0.79036  0.26171  1.0000
  N   N2        1.0  0.04294  0.77239  0.26526  1.0000
  H   H3        1.0  0.09103  0.79644  0.20036  1.0000
  C   C7        1.0  0.02426  0.76305  0.34342  1.0000
  C   C8        1.0  0.08048  0.79116  0.42429  1.0000
  C   C9        1.0  0.04305  0.77245  0.42621  1.0000
  C   C10       1.0  0.02406  0.76295  0.50786  1.0000
  H   H4        1.0  0.03717  0.76950  0.56802  1.0000
  C   C11       1.0  0.13609  0.31896  0.33956  1.0000
  C   C12       1.0  0.09885  0.30035  0.34174  1.0000
  H   H5        1.0  0.09445  0.29815  0.48330  1.0000
  C   C13       1.0  0.13609  0.81897  0.33956  1.0000
  C   C14       1.0  0.09885  0.80035  0.34174  1.0000
  H   H6        1.0  0.09445  0.79815  0.48330  1.0000
  N   N3        1.0  0.15425  0.35495  0.33993  1.0000
  N   N4        1.0  0.15425  0.30114  0.33993  1.0000
  N   N5        1.0  0.15425  0.85495  0.33993  1.0000
  N   N6        1.0  0.15425  0.80114  0.33993  1.0000
  C   C15       1.0  0.29217  0.21704  0.26131  1.0000
  N   N7        1.0  0.27420  0.23500  0.26505  1.0000
  C   C16       1.0  0.21884  0.29036  0.26171  1.0000
  H   H7        1.0  0.29822  0.21099  0.19989  1.0000
  N   N8        1.0  0.23681  0.27239  0.26526  1.0000
  H   H8        1.0  0.21276  0.29643  0.20036  1.0000
  C   C17       1.0  0.29216  0.07697  0.26131  1.0000
  N   N9        1.0  0.27420  0.04104  0.26505  1.0000
  C   C18       1.0  0.21884  0.43033  0.26171  1.0000
  H   H9        1.0  0.29822  0.08907  0.19989  1.0000
  N   N10       1.0  0.23681  0.46626  0.26526  1.0000
  H   H10       1.0  0.21276  0.41817  0.20036  1.0000
  C   C19       1.0  0.43223  0.21703  0.26131  1.0000
  N   N11       1.0  0.46816  0.23500  0.26505  1.0000
  H   H11       1.0  0.42013  0.21098  0.19989  1.0000
  C   C20       1.0  0.19023  0.37311  0.33956  1.0000
  C   C21       1.0  0.19023  0.31896  0.33956  1.0000
  N   N12       1.0  0.20806  0.35495  0.33993  1.0000
  C   C22       1.0  0.32080  0.13425  0.33886  1.0000
  N   N13       1.0  0.35679  0.15241  0.33926  1.0000
  C   C23       1.0  0.37495  0.18839  0.33886  1.0000
  N   N14       1.0  0.35679  0.20622  0.33926  1.0000
  C   C24       1.0  0.32081  0.18840  0.33886  1.0000
  N   N15       1.0  0.30298  0.15241  0.33926  1.0000
  C   C25       1.0  0.30219  0.20701  0.34123  1.0000
  C   C26       1.0  0.26489  0.24431  0.34331  1.0000
  C   C27       1.0  0.27432  0.23488  0.42600  1.0000
  C   C28       1.0  0.29304  0.21616  0.42388  1.0000
  H   H12       1.0  0.30005  0.20916  0.48281  1.0000
  C   C29       1.0  0.24615  0.26305  0.34342  1.0000
  C   C30       1.0  0.20885  0.30034  0.34174  1.0000
  C   C31       1.0  0.21804  0.29116  0.42429  1.0000
  C   C32       1.0  0.23675  0.27245  0.42621  1.0000
  C   C33       1.0  0.24625  0.26295  0.50785  1.0000
  C   C34       1.0  0.26486  0.24434  0.50775  1.0000
  H   H13       1.0  0.23969  0.26950  0.56802  1.0000
  H   H14       1.0  0.27144  0.23776  0.56784  1.0000
  H   H15       1.0  0.21105  0.29814  0.48330  1.0000
  C   C35       1.0  0.30219  0.09701  0.34123  1.0000
  C   C36       1.0  0.26489  0.02242  0.34331  1.0000
  C   C37       1.0  0.27432  0.04129  0.42600  1.0000
  C   C38       1.0  0.29304  0.07871  0.42388  1.0000
  H   H16       1.0  0.30004  0.09273  0.48281  1.0000
  C   C39       1.0  0.24615  0.48495  0.34342  1.0000
  C   C40       1.0  0.20885  0.41035  0.34174  1.0000
  C   C41       1.0  0.21804  0.42872  0.42429  1.0000
  C   C42       1.0  0.23675  0.46615  0.42621  1.0000
  C   C43       1.0  0.24625  0.48514  0.50785  1.0000
  C   C44       1.0  0.26486  0.02237  0.50775  1.0000
  H   H17       1.0  0.23970  0.47203  0.56802  1.0000
  H   H18       1.0  0.27144  0.03552  0.56785  1.0000
  H   H19       1.0  0.21105  0.41475  0.48330  1.0000
  C   C45       1.0  0.41219  0.20701  0.34123  1.0000
  C   C46       1.0  0.48678  0.24431  0.34332  1.0000
  C   C47       1.0  0.46791  0.23487  0.42600  1.0000
  C   C48       1.0  0.43049  0.21616  0.42388  1.0000
  H   H20       1.0  0.41647  0.20915  0.48281  1.0000
  C   C49       1.0  0.48683  0.24434  0.50775  1.0000
  H   H21       1.0  0.47368  0.23776  0.56785  1.0000
  C   C50       1.0  0.29217  0.71704  0.26131  1.0000
  N   N16       1.0  0.27420  0.73500  0.26505  1.0000
  C   C51       1.0  0.21884  0.79036  0.26171  1.0000
  H   H22       1.0  0.29822  0.71098  0.19989  1.0000
  N   N17       1.0  0.23681  0.77239  0.26526  1.0000
  H   H23       1.0  0.21276  0.79643  0.20036  1.0000
  C   C52       1.0  0.29216  0.57697  0.26131  1.0000
  N   N18       1.0  0.27420  0.54104  0.26505  1.0000
  C   C53       1.0  0.21884  0.93032  0.26171  1.0000
  H   H24       1.0  0.29822  0.58907  0.19989  1.0000
  N   N19       1.0  0.23681  0.96626  0.26526  1.0000
  H   H25       1.0  0.21277  0.91817  0.20036  1.0000
  C   C54       1.0  0.43223  0.71703  0.26131  1.0000
  N   N20       1.0  0.46816  0.73500  0.26505  1.0000
  H   H26       1.0  0.42013  0.71098  0.19989  1.0000
  C   C55       1.0  0.19024  0.87311  0.33956  1.0000
  C   C56       1.0  0.19023  0.81896  0.33956  1.0000
  N   N21       1.0  0.20806  0.85495  0.33993  1.0000
  C   C57       1.0  0.32081  0.63425  0.33886  1.0000
  N   N22       1.0  0.35679  0.65241  0.33926  1.0000
  C   C58       1.0  0.37495  0.68839  0.33886  1.0000
  N   N23       1.0  0.35679  0.70622  0.33926  1.0000
  C   C59       1.0  0.32081  0.68840  0.33886  1.0000
  N   N24       1.0  0.30298  0.65241  0.33926  1.0000
  C   C60       1.0  0.30219  0.70701  0.34123  1.0000
  C   C61       1.0  0.26489  0.74431  0.34331  1.0000
  C   C62       1.0  0.27432  0.73488  0.42600  1.0000
  C   C63       1.0  0.29304  0.71616  0.42388  1.0000
  H   H27       1.0  0.30005  0.70916  0.48281  1.0000
  C   C64       1.0  0.24615  0.76305  0.34342  1.0000
  C   C65       1.0  0.20885  0.80034  0.34174  1.0000
  C   C66       1.0  0.21804  0.79116  0.42429  1.0000
  C   C67       1.0  0.23675  0.77244  0.42621  1.0000
  C   C68       1.0  0.24625  0.76295  0.50785  1.0000
  C   C69       1.0  0.26486  0.74434  0.50775  1.0000
  H   H28       1.0  0.23970  0.76950  0.56802  1.0000
  H   H29       1.0  0.27144  0.73776  0.56784  1.0000
  H   H30       1.0  0.21105  0.79814  0.48330  1.0000
  C   C70       1.0  0.30219  0.59701  0.34123  1.0000
  C   C71       1.0  0.26489  0.52242  0.34331  1.0000
  C   C72       1.0  0.27432  0.54129  0.42600  1.0000
  C   C73       1.0  0.29304  0.57871  0.42388  1.0000
  H   H31       1.0  0.30005  0.59273  0.48281  1.0000
  C   C74       1.0  0.24615  0.98495  0.34342  1.0000
  C   C75       1.0  0.20886  0.91035  0.34174  1.0000
  C   C76       1.0  0.21804  0.92872  0.42429  1.0000
  C   C77       1.0  0.23675  0.96615  0.42621  1.0000
  C   C78       1.0  0.24625  0.98514  0.50785  1.0000
  C   C79       1.0  0.26486  0.52237  0.50775  1.0000
  H   H32       1.0  0.23970  0.97203  0.56802  1.0000
  H   H33       1.0  0.27144  0.53552  0.56785  1.0000
  H   H34       1.0  0.21105  0.91475  0.48330  1.0000
  C   C80       1.0  0.41219  0.70701  0.34123  1.0000
  C   C81       1.0  0.48678  0.74431  0.34332  1.0000
  C   C82       1.0  0.46791  0.73487  0.42600  1.0000
  C   C83       1.0  0.43049  0.71616  0.42388  1.0000
  H   H35       1.0  0.41647  0.70915  0.48281  1.0000
  C   C84       1.0  0.48683  0.74433  0.50775  1.0000
  H   H36       1.0  0.47368  0.73776  0.56785  1.0000
  C   C85       1.0  0.79217  0.21704  0.26131  1.0000
  N   N25       1.0  0.77420  0.23500  0.26505  1.0000
  C   C86       1.0  0.71884  0.29036  0.26171  1.0000
  H   H37       1.0  0.79822  0.21099  0.19989  1.0000
  N   N26       1.0  0.73681  0.27239  0.26526  1.0000
  H   H38       1.0  0.71276  0.29643  0.20036  1.0000
  C   C87       1.0  0.79216  0.07697  0.26131  1.0000
  N   N27       1.0  0.77420  0.04104  0.26505  1.0000
  C   C88       1.0  0.71884  0.43033  0.26171  1.0000
  H   H39       1.0  0.79822  0.08907  0.19989  1.0000
  N   N28       1.0  0.73681  0.46626  0.26526  1.0000
  H   H40       1.0  0.71276  0.41817  0.20036  1.0000
  C   C89       1.0  0.93223  0.21703  0.26131  1.0000
  N   N29       1.0  0.96816  0.23500  0.26505  1.0000
  C   C90       1.0  0.57887  0.29036  0.26171  1.0000
  H   H41       1.0  0.92013  0.21098  0.19989  1.0000
  N   N30       1.0  0.54294  0.27239  0.26526  1.0000
  H   H42       1.0  0.59103  0.29644  0.20036  1.0000
  C   C91       1.0  0.69024  0.37311  0.33956  1.0000
  N   N31       1.0  0.65425  0.35495  0.33993  1.0000
  C   C92       1.0  0.63609  0.31896  0.33956  1.0000
  N   N32       1.0  0.65424  0.30114  0.33993  1.0000
  C   C93       1.0  0.69023  0.31896  0.33956  1.0000
  N   N33       1.0  0.70806  0.35495  0.33993  1.0000
  C   C94       1.0  0.82080  0.13425  0.33886  1.0000
  N   N34       1.0  0.85679  0.15241  0.33926  1.0000
  C   C95       1.0  0.87495  0.18839  0.33886  1.0000
  N   N35       1.0  0.85679  0.20622  0.33926  1.0000
  C   C96       1.0  0.82081  0.18840  0.33886  1.0000
  N   N36       1.0  0.80298  0.15241  0.33926  1.0000
  C   C97       1.0  0.80219  0.20701  0.34123  1.0000
  C   C98       1.0  0.76489  0.24431  0.34331  1.0000
  C   C99       1.0  0.77432  0.23488  0.42600  1.0000
  C   C100      1.0  0.79304  0.21616  0.42388  1.0000
  H   H43       1.0  0.80005  0.20916  0.48281  1.0000
  C   C101      1.0  0.74615  0.26305  0.34342  1.0000
  C   C102      1.0  0.70885  0.30034  0.34174  1.0000
  C   C103      1.0  0.71804  0.29116  0.42429  1.0000
  C   C104      1.0  0.73675  0.27245  0.42621  1.0000
  C   C105      1.0  0.74625  0.26295  0.50785  1.0000
  C   C106      1.0  0.76486  0.24434  0.50775  1.0000
  H   H44       1.0  0.73969  0.26950  0.56802  1.0000
  H   H45       1.0  0.77144  0.23776  0.56784  1.0000
  H   H46       1.0  0.71105  0.29814  0.48330  1.0000
  C   C107      1.0  0.80219  0.09701  0.34123  1.0000
  C   C108      1.0  0.76489  0.02242  0.34331  1.0000
  C   C109      1.0  0.77432  0.04129  0.42600  1.0000
  C   C110      1.0  0.79304  0.07871  0.42388  1.0000
  H   H47       1.0  0.80004  0.09273  0.48281  1.0000
  C   C111      1.0  0.74615  0.48495  0.34342  1.0000
  C   C112      1.0  0.70885  0.41035  0.34174  1.0000
  C   C113      1.0  0.71804  0.42872  0.42429  1.0000
  C   C114      1.0  0.73675  0.46615  0.42621  1.0000
  C   C115      1.0  0.74625  0.48514  0.50785  1.0000
  C   C116      1.0  0.76486  0.02237  0.50775  1.0000
  H   H48       1.0  0.73970  0.47203  0.56802  1.0000
  H   H49       1.0  0.77144  0.03552  0.56785  1.0000
  H   H50       1.0  0.71105  0.41475  0.48330  1.0000
  C   C117      1.0  0.91218  0.20701  0.34123  1.0000
  C   C118      1.0  0.98678  0.24431  0.34332  1.0000
  C   C119      1.0  0.96791  0.23487  0.42600  1.0000
  C   C120      1.0  0.93049  0.21616  0.42388  1.0000
  H   H51       1.0  0.91647  0.20915  0.48281  1.0000
  C   C121      1.0  0.52426  0.26305  0.34342  1.0000
  C   C122      1.0  0.59885  0.30035  0.34174  1.0000
  C   C123      1.0  0.58048  0.29116  0.42429  1.0000
  C   C124      1.0  0.54305  0.27245  0.42621  1.0000
  C   C125      1.0  0.52406  0.26295  0.50786  1.0000
  C   C126      1.0  0.98683  0.24434  0.50775  1.0000
  H   H52       1.0  0.53717  0.26950  0.56802  1.0000
  H   H53       1.0  0.97367  0.23776  0.56785  1.0000
  H   H54       1.0  0.59445  0.29815  0.48330  1.0000
  C   C127      1.0  0.79217  0.71704  0.26131  1.0000
  N   N37       1.0  0.77420  0.73500  0.26505  1.0000
  C   C128      1.0  0.71884  0.79036  0.26171  1.0000
  H   H55       1.0  0.79822  0.71098  0.19989  1.0000
  N   N38       1.0  0.73681  0.77239  0.26526  1.0000
  H   H56       1.0  0.71276  0.79643  0.20036  1.0000
  C   C129      1.0  0.79216  0.57697  0.26131  1.0000
  N   N39       1.0  0.77420  0.54104  0.26505  1.0000
  C   C130      1.0  0.71884  0.93032  0.26171  1.0000
  H   H57       1.0  0.79822  0.58907  0.19989  1.0000
  N   N40       1.0  0.73681  0.96626  0.26526  1.0000
  H   H58       1.0  0.71276  0.91817  0.20036  1.0000
  C   C131      1.0  0.93223  0.71703  0.26131  1.0000
  N   N41       1.0  0.96816  0.73500  0.26505  1.0000
  C   C132      1.0  0.57887  0.79036  0.26171  1.0000
  H   H59       1.0  0.92013  0.71098  0.19989  1.0000
  N   N42       1.0  0.54294  0.77239  0.26526  1.0000
  H   H60       1.0  0.59103  0.79644  0.20036  1.0000
  C   C133      1.0  0.69024  0.87311  0.33956  1.0000
  N   N43       1.0  0.65425  0.85495  0.33993  1.0000
  C   C134      1.0  0.63609  0.81897  0.33956  1.0000
  N   N44       1.0  0.65425  0.80114  0.33993  1.0000
  C   C135      1.0  0.69023  0.81896  0.33956  1.0000
  N   N45       1.0  0.70806  0.85495  0.33993  1.0000
  C   C136      1.0  0.82081  0.63425  0.33886  1.0000
  N   N46       1.0  0.85679  0.65241  0.33926  1.0000
  C   C137      1.0  0.87495  0.68839  0.33886  1.0000
  N   N47       1.0  0.85679  0.70622  0.33926  1.0000
  C   C138      1.0  0.82081  0.68840  0.33886  1.0000
  N   N48       1.0  0.80298  0.65241  0.33926  1.0000
  C   C139      1.0  0.80219  0.70701  0.34123  1.0000
  C   C140      1.0  0.76489  0.74431  0.34331  1.0000
  C   C141      1.0  0.77433  0.73488  0.42600  1.0000
  C   C142      1.0  0.79304  0.71616  0.42388  1.0000
  H   H61       1.0  0.80005  0.70916  0.48281  1.0000
  C   C143      1.0  0.74615  0.76305  0.34342  1.0000
  C   C144      1.0  0.70885  0.80034  0.34174  1.0000
  C   C145      1.0  0.71804  0.79116  0.42429  1.0000
  C   C146      1.0  0.73675  0.77244  0.42621  1.0000
  C   C147      1.0  0.74625  0.76295  0.50785  1.0000
  C   C148      1.0  0.76486  0.74434  0.50775  1.0000
  H   H62       1.0  0.73969  0.76950  0.56802  1.0000
  H   H63       1.0  0.77144  0.73776  0.56784  1.0000
  H   H64       1.0  0.71105  0.79814  0.48330  1.0000
  C   C149      1.0  0.80219  0.59701  0.34123  1.0000
  C   C150      1.0  0.76489  0.52242  0.34331  1.0000
  C   C151      1.0  0.77432  0.54129  0.42600  1.0000
  C   C152      1.0  0.79304  0.57871  0.42388  1.0000
  H   H65       1.0  0.80005  0.59273  0.48281  1.0000
  C   C153      1.0  0.74615  0.98495  0.34342  1.0000
  C   C154      1.0  0.70886  0.91035  0.34174  1.0000
  C   C155      1.0  0.71804  0.92872  0.42429  1.0000
  C   C156      1.0  0.73675  0.96615  0.42621  1.0000
  C   C157      1.0  0.74625  0.98514  0.50785  1.0000
  C   C158      1.0  0.76486  0.52237  0.50775  1.0000
  H   H66       1.0  0.73970  0.97203  0.56802  1.0000
  H   H67       1.0  0.77144  0.53552  0.56785  1.0000
  H   H68       1.0  0.71106  0.91475  0.48330  1.0000
  C   C159      1.0  0.91219  0.70701  0.34123  1.0000
  C   C160      1.0  0.98678  0.74431  0.34332  1.0000
  C   C161      1.0  0.96791  0.73487  0.42600  1.0000
  C   C162      1.0  0.93049  0.71616  0.42388  1.0000
  H   H69       1.0  0.91647  0.70915  0.48281  1.0000
  C   C163      1.0  0.52426  0.76305  0.34342  1.0000
  C   C164      1.0  0.59885  0.80035  0.34174  1.0000
  C   C165      1.0  0.58048  0.79116  0.42429  1.0000
  C   C166      1.0  0.54305  0.77245  0.42621  1.0000
  C   C167      1.0  0.52406  0.76295  0.50786  1.0000
  C   C168      1.0  0.98683  0.74433  0.50775  1.0000
  H   H70       1.0  0.53717  0.76950  0.56802  1.0000
  H   H71       1.0  0.97368  0.73776  0.56785  1.0000
  H   H72       1.0  0.59445  0.79815  0.48330  1.0000
