data_image0
_chemical_formula_structural       C3NC3NC5NC5NC20H18N4C3HCH3CHC3HCH3CHC8H8C3HCH3CHC3HCH3CH
_chemical_formula_sum              "C64 N8 H46"
_cell_length_a       25.6419
_cell_length_b       25.6398
_cell_length_c       14.6561
_cell_angle_alpha    90
_cell_angle_beta     90
_cell_angle_gamma    89.9701

_space_group_name_H-M_alt    "P 1"
_space_group_IT_number       1

loop_
  _space_group_symop_operation_xyz
  'x, y, z'

loop_
  _atom_site_type_symbol
  _atom_site_label
  _atom_site_symmetry_multiplicity
  _atom_site_fract_x
  _atom_site_fract_y
  _atom_site_fract_z
  _atom_site_occupancy
  C   C1        1.0  0.91425  0.14779  0.34229  1.0000
  C   C2        1.0  0.87591  0.10999  0.34167  1.0000
  C   C3        1.0  0.89996  0.06106  0.34124  1.0000
  N   N1        1.0  0.95194  0.07118  0.34076  1.0000
  C   C4        1.0  0.96281  0.12302  0.34122  1.0000
  C   C5        1.0  0.01186  0.14917  0.34073  1.0000
  C   C6        1.0  0.06106  0.12351  0.33924  1.0000
  N   N2        1.0  0.07094  0.07165  0.34032  1.0000
  C   C7        1.0  0.12266  0.06112  0.33744  1.0000
  C   C8        1.0  0.14755  0.10952  0.33377  1.0000
  C   C9        1.0  0.10972  0.14785  0.33510  1.0000
  C   C10       1.0  0.14766  0.01156  0.33697  1.0000
  C   C11       1.0  0.12071  0.96290  0.33726  1.0000
  N   N3        1.0  0.06872  0.95273  0.33746  1.0000
  C   C12       1.0  0.05781  0.90088  0.33730  1.0000
  C   C13       1.0  0.10639  0.87615  0.33657  1.0000
  C   C14       1.0  0.14473  0.91395  0.33754  1.0000
  C   C15       1.0  0.00877  0.87464  0.33761  1.0000
  C   C16       1.0  0.95956  0.90035  0.33884  1.0000
  N   N4        1.0  0.94975  0.95222  0.33788  1.0000
  C   C17       1.0  0.89805  0.96282  0.34057  1.0000
  C   C18       1.0  0.87304  0.91448  0.34387  1.0000
  C   C19       1.0  0.91083  0.87611  0.34295  1.0000
  C   C20       1.0  0.87310  0.01238  0.34131  1.0000
  C   C21       1.0  0.81725  0.01322  0.34235  1.0000
  C   C22       1.0  0.70584  0.01590  0.34397  1.0000
  C   C23       1.0  0.73353  0.00620  0.26214  1.0000
  C   C24       1.0  0.78849  0.00492  0.26133  1.0000
  C   C25       1.0  0.00871  0.81871  0.33675  1.0000
  C   C26       1.0  0.00697  0.70718  0.33520  1.0000
  C   C27       1.0  0.99378  0.73603  0.25644  1.0000
  C   C28       1.0  0.99515  0.79097  0.25678  1.0000
  C   C29       1.0  0.20358  0.01078  0.33602  1.0000
  C   C30       1.0  0.23129  0.99750  0.25587  1.0000
  C   C31       1.0  0.28624  0.99596  0.25556  1.0000
  C   C32       1.0  0.31510  0.00879  0.33446  1.0000
  C   C33       1.0  0.01189  0.20503  0.34167  1.0000
  C   C34       1.0  0.00278  0.23378  0.26090  1.0000
  C   C35       1.0  0.01398  0.31646  0.34340  1.0000
  C   C36       1.0  0.00376  0.28875  0.26178  1.0000
  H   H1        1.0  0.99797  0.30840  0.20192  1.0000
  H   H2        1.0  0.99581  0.21483  0.20067  1.0000
  H   H3        1.0  0.90708  0.18700  0.34304  1.0000
  H   H4        1.0  0.83681  0.11775  0.34182  1.0000
  H   H5        1.0  0.97824  0.04451  0.34034  1.0000
  H   H6        1.0  0.04242  0.97940  0.33726  1.0000
  H   H7        1.0  0.11714  0.18697  0.33174  1.0000
  H   H8        1.0  0.18671  0.11652  0.32947  1.0000
  H   H9        1.0  0.21156  0.98832  0.19732  1.0000
  H   H10       1.0  0.30515  0.98572  0.19670  1.0000
  H   H11       1.0  0.18381  0.90612  0.33798  1.0000
  H   H12       1.0  0.11365  0.83696  0.33604  1.0000
  H   H13       1.0  0.83386  0.90760  0.34810  1.0000
  H   H14       1.0  0.90331  0.83702  0.34652  1.0000
  H   H15       1.0  0.98558  0.81068  0.19839  1.0000
  H   H16       1.0  0.98332  0.71710  0.19772  1.0000
  H   H17       1.0  0.80743  0.99823  0.20097  1.0000
  H   H18       1.0  0.71389  0.00096  0.20213  1.0000
  N   N5        1.0  0.00365  0.65525  0.33072  1.0000
  N   N6        1.0  0.36703  0.00541  0.33004  1.0000
  N   N7        1.0  0.01757  0.36835  0.34792  1.0000
  N   N8        1.0  0.65395  0.01953  0.34845  1.0000
  C   C37       1.0  0.00389  0.45746  0.31864  1.0000
  C   C38       1.0  0.00950  0.49413  0.24622  1.0000
  C   C39       1.0  0.01644  0.54756  0.26761  1.0000
  H   H19       1.0  0.02132  0.57356  0.21510  1.0000
  C   C40       1.0  0.00972  0.48007  0.14746  1.0000
  H   H20       1.0  0.00759  0.43827  0.13486  1.0000
  H   H21       1.0  0.04557  0.49410  0.11564  1.0000
  H   H22       1.0  0.97654  0.49845  0.11359  1.0000
  C   C41       1.0  0.99404  0.40468  0.30325  1.0000
  H   H23       1.0  0.96717  0.39509  0.25734  1.0000
  C   C42       1.0  0.56488  0.00584  0.31873  1.0000
  C   C43       1.0  0.52828  0.01131  0.24615  1.0000
  C   C44       1.0  0.47481  0.01816  0.26731  1.0000
  H   H24       1.0  0.44886  0.02298  0.21469  1.0000
  C   C45       1.0  0.54245  0.01148  0.14744  1.0000
  H   H25       1.0  0.58428  0.00946  0.13499  1.0000
  H   H26       1.0  0.52833  0.04728  0.11548  1.0000
  H   H27       1.0  0.52424  0.97822  0.11359  1.0000
  C   C46       1.0  0.61771  0.99604  0.30357  1.0000
  H   H28       1.0  0.62740  0.96924  0.25758  1.0000
  C   C47       1.0  0.78964  0.02307  0.42405  1.0000
  C   C48       1.0  0.73470  0.02488  0.42450  1.0000
  C   C49       1.0  0.02108  0.78991  0.41617  1.0000
  C   C50       1.0  0.02035  0.73494  0.41535  1.0000
  C   C51       1.0  0.28737  0.02197  0.41474  1.0000
  C   C52       1.0  0.23240  0.02286  0.41554  1.0000
  C   C53       1.0  0.02233  0.23266  0.42313  1.0000
  C   C54       1.0  0.02381  0.28761  0.42364  1.0000
  H   H29       1.0  0.03196  0.30652  0.48348  1.0000
  H   H30       1.0  0.02951  0.21290  0.48251  1.0000
  H   H31       1.0  0.21348  0.03219  0.47484  1.0000
  H   H32       1.0  0.30697  0.03017  0.47376  1.0000
  H   H33       1.0  0.03044  0.80886  0.47541  1.0000
  H   H34       1.0  0.02876  0.71534  0.47429  1.0000
  H   H35       1.0  0.71578  0.03255  0.48455  1.0000
  H   H36       1.0  0.80941  0.02952  0.48366  1.0000
  C   C55       1.0  0.01805  0.56615  0.35852  1.0000
  C   C56       1.0  0.01249  0.52949  0.43095  1.0000
  C   C57       1.0  0.00547  0.47608  0.40955  1.0000
  H   H37       1.0  0.00059  0.45009  0.46209  1.0000
  C   C58       1.0  0.01245  0.54358  0.52969  1.0000
  H   H38       1.0  0.01483  0.58538  0.54222  1.0000
  H   H39       1.0  0.04556  0.52503  0.56348  1.0000
  H   H40       1.0  0.97655  0.52974  0.56161  1.0000
  C   C59       1.0  0.02801  0.61889  0.37390  1.0000
  H   H41       1.0  0.05551  0.62837  0.41871  1.0000
  C   C60       1.0  0.45610  0.01984  0.35814  1.0000
  C   C61       1.0  0.49269  0.01444  0.43072  1.0000
  C   C62       1.0  0.54615  0.00751  0.40956  1.0000
  H   H42       1.0  0.57207  0.00272  0.46222  1.0000
  C   C63       1.0  0.47849  0.01452  0.52942  1.0000
  H   H43       1.0  0.43667  0.01682  0.54179  1.0000
  H   H44       1.0  0.49688  0.04773  0.56311  1.0000
  H   H45       1.0  0.49241  0.97870  0.56156  1.0000
  C   C64       1.0  0.40333  0.02979  0.37330  1.0000
  H   H46       1.0  0.39377  0.05734  0.41799  1.0000
