data_image0
_chemical_formula_structural       HNHNC7H4CHC7H4CHN2HN2HC7H4CHC7H4CHN2H3N2H3C6H5C6H5C6H3C6H3N4C6H3C6H3N4C6H3C6H3N4C6H2C6H3N3C6H2C6H3N3CN2CHCN2CHC8H4CHC9H4CHC2N2CHCN2CHC8H2CHC9H2CHC3N2C2HC2N2C2H
_chemical_formula_sum              "H90 N40 C160"
_cell_length_a       32.8247
_cell_length_b       40.9938
_cell_length_c       14.8263
_cell_angle_alpha    88.898
_cell_angle_beta     90.861
_cell_angle_gamma    89.7255

_space_group_name_H-M_alt    "P 1"
_space_group_IT_number       1

loop_
  _space_group_symop_operation_xyz
  'x, y, z'

loop_
  _atom_site_type_symbol
  _atom_site_label
  _atom_site_symmetry_multiplicity
  _atom_site_fract_x
  _atom_site_fract_y
  _atom_site_fract_z
  _atom_site_occupancy
  H   H1        1.0  0.77501  0.35837  0.39041  1.0000
  N   N1        1.0  0.84417  0.32983  0.37222  1.0000
  H   H2        1.0  0.16042  0.67623  0.38996  1.0000
  N   N2        1.0  0.09106  0.70505  0.37162  1.0000
  C   C1        1.0  0.12145  0.11964  0.33826  1.0000
  C   C2        1.0  0.13351  0.13965  0.26384  1.0000
  C   C3        1.0  0.15241  0.17032  0.28152  1.0000
  C   C4        1.0  0.16366  0.19068  0.20749  1.0000
  C   C5        1.0  0.15536  0.18172  0.11819  1.0000
  C   C6        1.0  0.13587  0.15211  0.10094  1.0000
  C   C7        1.0  0.12508  0.13131  0.17293  1.0000
  H   H3        1.0  0.17820  0.21234  0.21724  1.0000
  H   H4        1.0  0.16342  0.19679  0.06578  1.0000
  H   H5        1.0  0.12944  0.14573  0.03596  1.0000
  H   H6        1.0  0.11012  0.11034  0.15733  1.0000
  C   C8        1.0  0.10600  0.08779  0.33191  1.0000
  H   H7        1.0  0.11262  0.07450  0.27636  1.0000
  C   C9        1.0  0.81371  0.91611  0.34040  1.0000
  C   C10       1.0  0.80260  0.89647  0.26592  1.0000
  C   C11       1.0  0.78417  0.86545  0.28338  1.0000
  C   C12       1.0  0.77365  0.84556  0.20924  1.0000
  C   C13       1.0  0.78230  0.85530  0.12030  1.0000
  C   C14       1.0  0.80141  0.88524  0.10345  1.0000
  C   C15       1.0  0.81147  0.90560  0.17545  1.0000
  H   H8        1.0  0.75921  0.82377  0.21855  1.0000
  H   H9        1.0  0.77467  0.84059  0.06783  1.0000
  H   H10       1.0  0.80804  0.89221  0.03876  1.0000
  H   H11       1.0  0.82606  0.92690  0.16030  1.0000
  C   C16       1.0  0.82831  0.94827  0.33407  1.0000
  H   H12       1.0  0.82159  0.96204  0.27758  1.0000
  N   N3        1.0  0.77827  0.15072  0.33879  1.0000
  N   N4        1.0  0.80453  0.12714  0.35214  1.0000
  H   H13       1.0  0.72683  0.19684  0.31370  1.0000
  N   N5        1.0  0.15679  0.88469  0.33793  1.0000
  N   N6        1.0  0.13082  0.90816  0.35132  1.0000
  H   H14       1.0  0.20774  0.83876  0.31285  1.0000
  C   C17       1.0  0.23583  0.48331  0.33346  1.0000
  C   C18       1.0  0.26467  0.50102  0.28100  1.0000
  C   C19       1.0  0.26758  0.53569  0.29169  1.0000
  C   C20       1.0  0.29353  0.55364  0.23336  1.0000
  C   C21       1.0  0.31624  0.53825  0.16684  1.0000
  C   C22       1.0  0.31340  0.50449  0.15654  1.0000
  C   C23       1.0  0.28790  0.48612  0.21287  1.0000
  H   H15       1.0  0.29473  0.57843  0.23385  1.0000
  H   H16       1.0  0.33374  0.55179  0.12383  1.0000
  H   H17       1.0  0.32885  0.49343  0.10609  1.0000
  H   H18       1.0  0.28482  0.46209  0.19833  1.0000
  C   C24       1.0  0.23000  0.44933  0.34049  1.0000
  H   H19       1.0  0.20541  0.44115  0.37581  1.0000
  C   C25       1.0  0.69895  0.55185  0.33425  1.0000
  C   C26       1.0  0.66964  0.53487  0.28116  1.0000
  C   C27       1.0  0.66680  0.50006  0.29194  1.0000
  C   C28       1.0  0.64035  0.48289  0.23305  1.0000
  C   C29       1.0  0.61707  0.49917  0.16587  1.0000
  C   C30       1.0  0.61985  0.53307  0.15547  1.0000
  C   C31       1.0  0.64587  0.55067  0.21229  1.0000
  H   H20       1.0  0.63910  0.45809  0.23374  1.0000
  H   H21       1.0  0.59913  0.48622  0.12263  1.0000
  H   H22       1.0  0.60390  0.54482  0.10468  1.0000
  H   H23       1.0  0.64876  0.57492  0.19790  1.0000
  C   C32       1.0  0.70487  0.58573  0.34124  1.0000
  H   H24       1.0  0.72975  0.59347  0.37704  1.0000
  N   N7        1.0  0.95055  0.32518  0.30866  1.0000
  N   N8        1.0  0.98961  0.32647  0.32685  1.0000
  H   H25       1.0  0.89630  0.34269  0.00734  1.0000
  H   H26       1.0  0.96857  0.34443  0.04144  1.0000
  H   H27       1.0  0.87890  0.30852  0.27799  1.0000
  N   N9        1.0  0.98384  0.71050  0.30786  1.0000
  N   N10       1.0  0.94503  0.70879  0.32594  1.0000
  H   H28       1.0  0.03845  0.69241  0.00656  1.0000
  H   H29       1.0  0.96664  0.68983  0.04045  1.0000
  H   H30       1.0  0.05507  0.72773  0.27742  1.0000
  C   C33       1.0  0.44747  0.33242  0.23619  1.0000
  C   C34       1.0  0.49025  0.33304  0.25888  1.0000
  C   C35       1.0  0.51867  0.32968  0.18835  1.0000
  C   C36       1.0  0.50592  0.32464  0.09895  1.0000
  C   C37       1.0  0.46432  0.32304  0.07750  1.0000
  C   C38       1.0  0.43546  0.32686  0.14536  1.0000
  H   H31       1.0  0.54924  0.33082  0.19993  1.0000
  H   H32       1.0  0.52695  0.32206  0.04942  1.0000
  H   H33       1.0  0.45503  0.31905  0.01256  1.0000
  H   H34       1.0  0.40548  0.32479  0.12703  1.0000
  H   H35       1.0  0.36849  0.35373  0.22850  1.0000
  C   C39       1.0  0.48588  0.70401  0.23655  1.0000
  C   C40       1.0  0.44341  0.70311  0.25920  1.0000
  C   C41       1.0  0.41404  0.70743  0.18862  1.0000
  C   C42       1.0  0.42560  0.71365  0.09920  1.0000
  C   C43       1.0  0.46691  0.71553  0.07781  1.0000
  C   C44       1.0  0.49668  0.71080  0.14571  1.0000
  H   H36       1.0  0.38363  0.70614  0.20017  1.0000
  H   H37       1.0  0.40390  0.71689  0.04964  1.0000
  H   H38       1.0  0.47532  0.72038  0.01284  1.0000
  H   H39       1.0  0.52641  0.71309  0.12740  1.0000
  H   H40       1.0  0.56472  0.68276  0.22900  1.0000
  C   C45       1.0  0.98999  0.01781  0.40236  1.0000
  C   C46       1.0  0.01363  0.98904  0.39174  1.0000
  C   C47       1.0  0.05605  0.98919  0.37617  1.0000
  C   C48       1.0  0.07544  0.01940  0.36345  1.0000
  C   C49       1.0  0.05479  0.04868  0.38274  1.0000
  C   C50       1.0  0.01321  0.04718  0.40594  1.0000
  H   H41       1.0  0.99968  0.96709  0.38848  1.0000
  H   H42       1.0  0.99963  0.06886  0.41988  1.0000
  H   H43       1.0  0.10614  0.01985  0.35245  1.0000
  C   C51       1.0  0.94606  0.01686  0.40249  1.0000
  C   C52       1.0  0.92286  0.98745  0.40591  1.0000
  C   C53       1.0  0.88089  0.98635  0.38325  1.0000
  C   C54       1.0  0.86000  0.01592  0.36434  1.0000
  C   C55       1.0  0.87966  0.04592  0.37683  1.0000
  C   C56       1.0  0.92230  0.04581  0.39213  1.0000
  H   H44       1.0  0.93662  0.96555  0.41955  1.0000
  H   H45       1.0  0.82913  0.01572  0.35368  1.0000
  H   H46       1.0  0.93621  0.06780  0.38866  1.0000
  N   N11       1.0  0.85615  0.07330  0.37671  1.0000
  N   N12       1.0  0.86235  0.95677  0.38053  1.0000
  N   N13       1.0  0.07307  0.07838  0.37955  1.0000
  N   N14       1.0  0.07961  0.96182  0.37595  1.0000
  C   C57       1.0  0.19261  0.32060  0.36974  1.0000
  C   C58       1.0  0.19379  0.28596  0.38390  1.0000
  C   C59       1.0  0.15801  0.26683  0.38678  1.0000
  C   C60       1.0  0.11982  0.28224  0.38597  1.0000
  C   C61       1.0  0.11602  0.31620  0.37471  1.0000
  C   C62       1.0  0.15213  0.33421  0.36061  1.0000
  H   H47       1.0  0.22071  0.27352  0.38440  1.0000
  H   H48       1.0  0.14744  0.35831  0.34694  1.0000
  H   H49       1.0  0.09399  0.26829  0.38817  1.0000
  C   C63       1.0  0.22929  0.33994  0.35995  1.0000
  C   C64       1.0  0.27025  0.32729  0.36168  1.0000
  C   C65       1.0  0.30490  0.34607  0.33690  1.0000
  C   C66       1.0  0.29864  0.37934  0.31411  1.0000
  C   C67       1.0  0.26066  0.39431  0.32681  1.0000
  C   C68       1.0  0.22704  0.37451  0.34854  1.0000
  H   H50       1.0  0.27557  0.30322  0.37579  1.0000
  H   H51       1.0  0.32318  0.39392  0.30099  1.0000
  H   H52       1.0  0.20028  0.38645  0.35590  1.0000
  N   N15       1.0  0.25920  0.42735  0.32064  1.0000
  N   N16       1.0  0.34373  0.33353  0.34068  1.0000
  N   N17       1.0  0.07821  0.33041  0.37210  1.0000
  N   N18       1.0  0.15621  0.23400  0.38181  1.0000
  C   C69       1.0  0.74259  0.71395  0.36983  1.0000
  C   C70       1.0  0.74166  0.74836  0.38470  1.0000
  C   C71       1.0  0.77752  0.76740  0.38695  1.0000
  C   C72       1.0  0.81567  0.75198  0.38547  1.0000
  C   C73       1.0  0.81925  0.71819  0.37390  1.0000
  C   C74       1.0  0.78289  0.70045  0.35994  1.0000
  H   H53       1.0  0.71478  0.76083  0.38566  1.0000
  H   H54       1.0  0.78732  0.67658  0.34568  1.0000
  H   H55       1.0  0.84155  0.76588  0.38744  1.0000
  C   C75       1.0  0.70574  0.69479  0.36021  1.0000
  C   C76       1.0  0.66481  0.70743  0.36192  1.0000
  C   C77       1.0  0.62982  0.68898  0.33724  1.0000
  C   C78       1.0  0.63577  0.65601  0.31454  1.0000
  C   C79       1.0  0.67391  0.64088  0.32733  1.0000
  C   C80       1.0  0.70782  0.66037  0.34902  1.0000
  H   H56       1.0  0.65971  0.73132  0.37582  1.0000
  H   H57       1.0  0.61105  0.64161  0.30146  1.0000
  H   H58       1.0  0.73467  0.64834  0.35665  1.0000
  N   N19       1.0  0.67534  0.60792  0.32117  1.0000
  N   N20       1.0  0.59103  0.70148  0.34101  1.0000
  N   N21       1.0  0.85701  0.70402  0.37096  1.0000
  N   N22       1.0  0.77941  0.80027  0.38266  1.0000
  C   C81       1.0  0.72989  0.32247  0.35753  1.0000
  C   C82       1.0  0.72829  0.28839  0.34031  1.0000
  C   C83       1.0  0.76362  0.26892  0.33601  1.0000
  C   C84       1.0  0.80229  0.28331  0.33921  1.0000
  C   C85       1.0  0.80649  0.31665  0.35795  1.0000
  C   C86       1.0  0.77040  0.33496  0.37147  1.0000
  H   H59       1.0  0.70133  0.27628  0.33757  1.0000
  H   H60       1.0  0.82762  0.26864  0.33834  1.0000
  C   C87       1.0  0.69316  0.34203  0.36320  1.0000
  C   C88       1.0  0.65235  0.32981  0.35412  1.0000
  C   C89       1.0  0.61680  0.34926  0.36405  1.0000
  C   C90       1.0  0.62198  0.38302  0.37656  1.0000
  C   C91       1.0  0.66097  0.39700  0.37763  1.0000
  C   C92       1.0  0.69545  0.37640  0.37390  1.0000
  H   H61       1.0  0.64732  0.30574  0.34304  1.0000
  H   H62       1.0  0.59701  0.39809  0.37595  1.0000
  H   H63       1.0  0.72270  0.38781  0.36994  1.0000
  N   N23       1.0  0.66341  0.42996  0.37087  1.0000
  N   N24       1.0  0.57867  0.33650  0.35184  1.0000
  N   N25       1.0  0.76179  0.23617  0.34114  1.0000
  C   C93       1.0  0.20513  0.71256  0.35720  1.0000
  C   C94       1.0  0.20655  0.74690  0.34012  1.0000
  C   C95       1.0  0.17117  0.76645  0.33568  1.0000
  C   C96       1.0  0.13253  0.75205  0.33884  1.0000
  C   C97       1.0  0.12855  0.71844  0.35747  1.0000
  C   C98       1.0  0.16479  0.69991  0.37105  1.0000
  H   H64       1.0  0.23349  0.75901  0.33709  1.0000
  H   H65       1.0  0.10721  0.76674  0.33790  1.0000
  C   C99       1.0  0.24189  0.69287  0.36292  1.0000
  C   C100      1.0  0.28260  0.70517  0.35411  1.0000
  C   C101      1.0  0.31825  0.68554  0.36411  1.0000
  C   C102      1.0  0.31318  0.65160  0.37652  1.0000
  C   C103      1.0  0.27417  0.63764  0.37706  1.0000
  C   C104      1.0  0.23967  0.65834  0.37333  1.0000
  H   H66       1.0  0.28754  0.72940  0.34321  1.0000
  H   H67       1.0  0.33809  0.63651  0.37578  1.0000
  H   H68       1.0  0.21237  0.64699  0.36891  1.0000
  N   N26       1.0  0.27161  0.60477  0.37018  1.0000
  N   N27       1.0  0.35623  0.69843  0.35207  1.0000
  N   N28       1.0  0.17308  0.79914  0.34066  1.0000
  C   C105      1.0  0.16114  0.17861  0.37264  1.0000
  N   N29       1.0  0.14896  0.15762  0.43872  1.0000
  N   N30       1.0  0.12998  0.13033  0.42258  1.0000
  C   C106      1.0  0.18028  0.20779  0.39763  1.0000
  H   H69       1.0  0.19635  0.20885  0.45694  1.0000
  C   C107      1.0  0.77481  0.85650  0.37405  1.0000
  N   N31       1.0  0.78588  0.87730  0.44011  1.0000
  N   N32       1.0  0.80446  0.90491  0.42438  1.0000
  C   C108      1.0  0.75666  0.82675  0.39942  1.0000
  H   H70       1.0  0.73974  0.82532  0.45669  1.0000
  C   C109      1.0  0.83938  0.13031  0.40143  1.0000
  C   C110      1.0  0.84613  0.16047  0.44556  1.0000
  C   C111      1.0  0.81663  0.18609  0.43262  1.0000
  C   C112      1.0  0.78280  0.18094  0.37297  1.0000
  C   C113      1.0  0.82042  0.21438  0.48601  1.0000
  C   C114      1.0  0.85338  0.21862  0.54583  1.0000
  C   C115      1.0  0.88325  0.19431  0.55506  1.0000
  C   C116      1.0  0.87947  0.16551  0.50616  1.0000
  H   H71       1.0  0.79807  0.23164  0.48700  1.0000
  H   H72       1.0  0.85509  0.23901  0.58429  1.0000
  H   H73       1.0  0.90686  0.19701  0.59999  1.0000
  H   H74       1.0  0.90094  0.14800  0.51945  1.0000
  C   C117      1.0  0.86631  0.10351  0.40454  1.0000
  H   H75       1.0  0.89393  0.10615  0.43509  1.0000
  C   C118      1.0  0.75348  0.20414  0.34327  1.0000
  C   C119      1.0  0.09668  0.90441  0.40081  1.0000
  C   C120      1.0  0.09047  0.87366  0.44509  1.0000
  C   C121      1.0  0.11966  0.84814  0.43201  1.0000
  C   C122      1.0  0.15265  0.85400  0.37219  1.0000
  C   C123      1.0  0.11654  0.81912  0.48547  1.0000
  C   C124      1.0  0.08448  0.81418  0.54560  1.0000
  C   C125      1.0  0.05486  0.83844  0.55496  1.0000
  C   C126      1.0  0.05804  0.86790  0.50599  1.0000
  H   H76       1.0  0.13888  0.80183  0.48656  1.0000
  H   H77       1.0  0.08333  0.79332  0.58434  1.0000
  H   H78       1.0  0.03201  0.83524  0.60032  1.0000
  H   H79       1.0  0.03689  0.88531  0.51950  1.0000
  C   C127      1.0  0.06988  0.93123  0.40398  1.0000
  H   H80       1.0  0.04271  0.92820  0.43468  1.0000
  C   C128      1.0  0.18149  0.83114  0.34261  1.0000
  C   C129      1.0  0.24136  0.55110  0.35408  1.0000
  N   N33       1.0  0.21308  0.53223  0.39508  1.0000
  N   N34       1.0  0.21064  0.50086  0.38577  1.0000
  C   C130      1.0  0.23974  0.58419  0.37760  1.0000
  H   H81       1.0  0.21460  0.59232  0.41064  1.0000
  C   C131      1.0  0.69356  0.48381  0.35509  1.0000
  N   N35       1.0  0.72223  0.50211  0.39662  1.0000
  N   N36       1.0  0.72461  0.53361  0.38720  1.0000
  C   C132      1.0  0.69538  0.45041  0.37877  1.0000
  H   H82       1.0  0.72084  0.44182  0.41233  1.0000
  C   C133      1.0  0.00482  0.32935  0.41177  1.0000
  C   C134      1.0  0.97611  0.33225  0.48254  1.0000
  C   C135      1.0  0.93319  0.33243  0.46158  1.0000
  C   C136      1.0  0.92042  0.32751  0.37048  1.0000
  C   C137      1.0  0.90547  0.33489  0.53376  1.0000
  C   C138      1.0  0.91912  0.33836  0.62325  1.0000
  C   C139      1.0  0.96092  0.33923  0.64309  1.0000
  C   C140      1.0  0.98908  0.33621  0.57350  1.0000
  H   H83       1.0  0.87481  0.33434  0.52331  1.0000
  H   H84       1.0  0.01926  0.33772  0.59065  1.0000
  C   C141      1.0  0.04649  0.32153  0.42533  1.0000
  H   H85       1.0  0.05415  0.30934  0.48407  1.0000
  C   C142      1.0  0.88062  0.32072  0.33757  1.0000
  C   C143      1.0  0.93096  0.70459  0.41081  1.0000
  C   C144      1.0  0.96062  0.70072  0.48162  1.0000
  C   C145      1.0  0.00326  0.70102  0.46076  1.0000
  C   C146      1.0  0.01479  0.70740  0.36976  1.0000
  C   C147      1.0  0.03195  0.69760  0.53301  1.0000
  C   C148      1.0  0.01951  0.69275  0.62244  1.0000
  C   C149      1.0  0.97797  0.69139  0.64214  1.0000
  C   C150      1.0  0.94888  0.69533  0.57251  1.0000
  H   H86       1.0  0.06247  0.69847  0.52267  1.0000
  H   H87       1.0  0.91894  0.69344  0.58957  1.0000
  C   C151      1.0  0.88944  0.71206  0.42438  1.0000
  H   H88       1.0  0.88253  0.72333  0.48327  1.0000
  C   C152      1.0  0.05414  0.71467  0.33696  1.0000
  C   C153      1.0  0.41794  0.33609  0.30513  1.0000
  C   C154      1.0  0.50230  0.33965  0.34953  1.0000
  N   N37       1.0  0.47152  0.34294  0.40945  1.0000
  N   N38       1.0  0.43256  0.34085  0.38990  1.0000
  C   C155      1.0  0.37597  0.34262  0.28890  1.0000
  C   C156      1.0  0.54200  0.34697  0.38271  1.0000
  H   H89       1.0  0.54338  0.36059  0.43986  1.0000
  C   C157      1.0  0.51633  0.69940  0.30553  1.0000
  C   C158      1.0  0.43256  0.69529  0.34987  1.0000
  N   N39       1.0  0.46416  0.69114  0.40981  1.0000
  N   N40       1.0  0.50285  0.69347  0.39029  1.0000
  C   C159      1.0  0.55808  0.69306  0.28934  1.0000
  C   C160      1.0  0.39331  0.68748  0.38295  1.0000
  H   H90       1.0  0.39267  0.67305  0.44006  1.0000
