data_image0
_chemical_formula_structural       N2C2NOCHC2NOCHC2NOCHC4H2C4H2C4H2C3NC18H12CNCNCNC18H12CNCNCNC18H12CNCNCNC18H12C4H2C4H2C4H2C2NOCHC2NOCHC2NOCH
_chemical_formula_sum              "N18 C126 O6 H66"
_cell_length_a       44.9371
_cell_length_b       44.9371
_cell_length_c       14.9845
_cell_angle_alpha    90
_cell_angle_beta     90
_cell_angle_gamma    120

_space_group_name_H-M_alt    "P 1"
_space_group_IT_number       1

loop_
  _space_group_symop_operation_xyz
  'x, y, z'

loop_
  _atom_site_type_symbol
  _atom_site_label
  _atom_site_symmetry_multiplicity
  _atom_site_fract_x
  _atom_site_fract_y
  _atom_site_fract_z
  _atom_site_occupancy
  N   N1        1.0  0.00996  0.97931  0.33383  1.0000
  N   N2        1.0  0.00996  0.03090  0.33383  1.0000
  C   C1        1.0  0.22935  0.11482  0.25490  1.0000
  C   C2        1.0  0.19357  0.09692  0.25546  1.0000
  N   N3        1.0  0.18329  0.09177  0.17073  1.0000
  O   O1        1.0  0.24212  0.12121  0.17028  1.0000
  C   C3        1.0  0.21225  0.10626  0.12204  1.0000
  H   H1        1.0  0.21201  0.10614  0.05390  1.0000
  C   C4        1.0  0.87443  0.11478  0.25491  1.0000
  C   C5        1.0  0.89235  0.09691  0.25546  1.0000
  N   N4        1.0  0.89749  0.09178  0.17073  1.0000
  O   O2        1.0  0.86805  0.12116  0.17030  1.0000
  C   C6        1.0  0.88300  0.10624  0.12205  1.0000
  H   H2        1.0  0.88312  0.10613  0.05391  1.0000
  C   C7        1.0  0.87448  0.75992  0.25490  1.0000
  C   C8        1.0  0.89236  0.79570  0.25546  1.0000
  N   N5        1.0  0.89749  0.80598  0.17073  1.0000
  O   O3        1.0  0.86809  0.74715  0.17029  1.0000
  C   C9        1.0  0.88302  0.77703  0.12205  1.0000
  H   H3        1.0  0.88314  0.77726  0.05390  1.0000
  C   C10       1.0  0.59250  0.13245  0.33226  1.0000
  C   C11       1.0  0.52882  0.13240  0.33216  1.0000
  C   C12       1.0  0.54486  0.13218  0.25107  1.0000
  C   C13       1.0  0.57633  0.13231  0.25104  1.0000
  H   H4        1.0  0.58935  0.13669  0.19198  1.0000
  H   H5        1.0  0.53615  0.13638  0.19190  1.0000
  C   C14       1.0  0.85677  0.46033  0.33249  1.0000
  C   C15       1.0  0.85687  0.39663  0.33258  1.0000
  C   C16       1.0  0.85721  0.41294  0.25143  1.0000
  C   C17       1.0  0.85687  0.44418  0.25141  1.0000
  H   H6        1.0  0.85256  0.45279  0.19222  1.0000
  H   H7        1.0  0.85294  0.40000  0.19228  1.0000
  C   C18       1.0  0.52893  0.39672  0.33226  1.0000
  C   C19       1.0  0.59259  0.46047  0.33217  1.0000
  C   C20       1.0  0.57633  0.44443  0.25111  1.0000
  C   C21       1.0  0.54500  0.41295  0.25111  1.0000
  H   H8        1.0  0.53637  0.39994  0.19202  1.0000
  H   H9        1.0  0.58923  0.45314  0.19192  1.0000
  C   C22       1.0  0.97502  0.96103  0.33382  1.0000
  C   C23       1.0  0.02825  0.01425  0.33382  1.0000
  C   C24       1.0  0.97502  0.01426  0.33382  1.0000
  N   N6        1.0  0.95837  0.97932  0.33383  1.0000
  C   C25       1.0  0.06494  0.03260  0.33400  1.0000
  C   C26       1.0  0.08385  0.01507  0.33416  1.0000
  C   C27       1.0  0.12001  0.03309  0.33460  1.0000
  C   C28       1.0  0.13838  0.06932  0.33489  1.0000
  C   C29       1.0  0.12001  0.08718  0.33461  1.0000
  C   C30       1.0  0.08386  0.06905  0.33416  1.0000
  C   C31       1.0  0.95667  0.92433  0.33399  1.0000
  C   C32       1.0  0.97420  0.90542  0.33416  1.0000
  C   C33       1.0  0.95618  0.86926  0.33460  1.0000
  C   C34       1.0  0.91995  0.85089  0.33489  1.0000
  C   C35       1.0  0.90209  0.86926  0.33460  1.0000
  C   C36       1.0  0.92022  0.90542  0.33416  1.0000
  C   C37       1.0  0.95667  0.03260  0.33399  1.0000
  C   C38       1.0  0.92023  0.01507  0.33416  1.0000
  C   C39       1.0  0.90209  0.03309  0.33460  1.0000
  C   C40       1.0  0.91995  0.06932  0.33489  1.0000
  C   C41       1.0  0.95618  0.08718  0.33460  1.0000
  C   C42       1.0  0.97421  0.06905  0.33416  1.0000
  H   H10       1.0  0.96969  0.85647  0.33480  1.0000
  H   H11       1.0  0.00047  0.91774  0.33406  1.0000
  H   H12       1.0  0.87578  0.85647  0.33480  1.0000
  H   H13       1.0  0.90627  0.91774  0.33406  1.0000
  H   H14       1.0  0.90628  0.98880  0.33406  1.0000
  H   H15       1.0  0.87578  0.01958  0.33480  1.0000
  H   H16       1.0  0.00047  0.08300  0.33406  1.0000
  H   H17       1.0  0.96969  0.11349  0.33480  1.0000
  H   H18       1.0  0.07154  0.08300  0.33406  1.0000
  H   H19       1.0  0.13281  0.11349  0.33481  1.0000
  H   H20       1.0  0.13281  0.01958  0.33480  1.0000
  H   H21       1.0  0.07153  0.98880  0.33406  1.0000
  C   C43       1.0  0.44750  0.19724  0.33529  1.0000
  N   N7        1.0  0.41257  0.18050  0.33489  1.0000
  C   C44       1.0  0.39438  0.19736  0.33477  1.0000
  N   N8        1.0  0.41258  0.23242  0.33504  1.0000
  C   C45       1.0  0.44751  0.25060  0.33545  1.0000
  N   N9        1.0  0.46378  0.23205  0.33552  1.0000
  C   C46       1.0  0.35768  0.17901  0.33451  1.0000
  C   C47       1.0  0.33877  0.14256  0.33448  1.0000
  C   C48       1.0  0.30261  0.12443  0.33471  1.0000
  C   C49       1.0  0.28425  0.14228  0.33497  1.0000
  C   C50       1.0  0.30261  0.17851  0.33472  1.0000
  C   C51       1.0  0.33876  0.19654  0.33449  1.0000
  C   C52       1.0  0.46707  0.18014  0.33517  1.0000
  C   C53       1.0  0.45139  0.14380  0.33469  1.0000
  C   C54       1.0  0.47128  0.12747  0.33403  1.0000
  C   C55       1.0  0.50748  0.14720  0.33382  1.0000
  C   C56       1.0  0.52334  0.18336  0.33453  1.0000
  C   C57       1.0  0.50349  0.19946  0.33523  1.0000
  C   C58       1.0  0.46709  0.28726  0.33543  1.0000
  C   C59       1.0  0.50352  0.30435  0.33551  1.0000
  C   C60       1.0  0.52339  0.34030  0.33475  1.0000
  C   C61       1.0  0.50755  0.36061  0.33395  1.0000
  C   C62       1.0  0.47135  0.34416  0.33435  1.0000
  C   C63       1.0  0.45144  0.30795  0.33503  1.0000
  H   H22       1.0  0.45923  0.10121  0.33340  1.0000
  H   H23       1.0  0.42520  0.12873  0.33459  1.0000
  H   H24       1.0  0.54959  0.19835  0.33435  1.0000
  H   H25       1.0  0.51633  0.22574  0.33553  1.0000
  H   H26       1.0  0.51635  0.29090  0.33582  1.0000
  H   H27       1.0  0.54964  0.35153  0.33457  1.0000
  H   H28       1.0  0.42525  0.29684  0.33494  1.0000
  H   H29       1.0  0.45932  0.35839  0.33371  1.0000
  H   H30       1.0  0.35107  0.22281  0.33449  1.0000
  H   H31       1.0  0.28981  0.19202  0.33486  1.0000
  H   H32       1.0  0.28982  0.09812  0.33483  1.0000
  H   H33       1.0  0.35108  0.12860  0.33447  1.0000
  C   C64       1.0  0.79200  0.25047  0.33506  1.0000
  N   N10       1.0  0.80873  0.23228  0.33472  1.0000
  C   C65       1.0  0.79187  0.19723  0.33469  1.0000
  N   N11       1.0  0.75681  0.18038  0.33500  1.0000
  C   C66       1.0  0.73864  0.19713  0.33537  1.0000
  N   N12       1.0  0.75719  0.23195  0.33535  1.0000
  C   C67       1.0  0.81022  0.17889  0.33447  1.0000
  C   C68       1.0  0.84667  0.19643  0.33446  1.0000
  C   C69       1.0  0.86481  0.17841  0.33471  1.0000
  C   C70       1.0  0.84696  0.14219  0.33499  1.0000
  C   C71       1.0  0.81073  0.12432  0.33474  1.0000
  C   C72       1.0  0.79270  0.14244  0.33449  1.0000
  C   C73       1.0  0.80911  0.28714  0.33491  1.0000
  C   C74       1.0  0.84545  0.30780  0.33447  1.0000
  C   C75       1.0  0.86179  0.34401  0.33391  1.0000
  C   C76       1.0  0.84207  0.36050  0.33377  1.0000
  C   C77       1.0  0.80591  0.34021  0.33444  1.0000
  C   C78       1.0  0.78980  0.30425  0.33500  1.0000
  C   C79       1.0  0.70197  0.18006  0.33541  1.0000
  C   C80       1.0  0.68489  0.19941  0.33550  1.0000
  C   C81       1.0  0.64894  0.18333  0.33477  1.0000
  C   C82       1.0  0.62862  0.14718  0.33396  1.0000
  C   C83       1.0  0.64506  0.12743  0.33434  1.0000
  C   C84       1.0  0.68128  0.14372  0.33501  1.0000
  H   H34       1.0  0.88805  0.35822  0.33340  1.0000
  H   H35       1.0  0.86051  0.29667  0.33437  1.0000
  H   H36       1.0  0.79092  0.35147  0.33437  1.0000
  H   H37       1.0  0.76352  0.29082  0.33531  1.0000
  H   H38       1.0  0.69835  0.22569  0.33581  1.0000
  H   H39       1.0  0.63771  0.19835  0.33459  1.0000
  H   H40       1.0  0.69238  0.12864  0.33491  1.0000
  H   H41       1.0  0.63083  0.10116  0.33371  1.0000
  H   H42       1.0  0.76643  0.12847  0.33447  1.0000
  H   H43       1.0  0.79722  0.09801  0.33488  1.0000
  H   H44       1.0  0.89112  0.19194  0.33483  1.0000
  H   H45       1.0  0.86062  0.22270  0.33443  1.0000
  C   C85       1.0  0.73875  0.54179  0.33524  1.0000
  N   N13       1.0  0.75694  0.57671  0.33487  1.0000
  C   C86       1.0  0.79199  0.59490  0.33472  1.0000
  N   N14       1.0  0.80885  0.57670  0.33493  1.0000
  C   C87       1.0  0.79210  0.54177  0.33530  1.0000
  N   N15       1.0  0.75728  0.52550  0.33541  1.0000
  C   C88       1.0  0.81034  0.63160  0.33449  1.0000
  C   C89       1.0  0.79281  0.65051  0.33447  1.0000
  C   C90       1.0  0.81083  0.68667  0.33472  1.0000
  C   C91       1.0  0.84705  0.70503  0.33499  1.0000
  C   C92       1.0  0.86492  0.68667  0.33473  1.0000
  C   C93       1.0  0.84679  0.65051  0.33449  1.0000
  C   C94       1.0  0.70208  0.52222  0.33515  1.0000
  C   C95       1.0  0.68142  0.53790  0.33469  1.0000
  C   C96       1.0  0.64520  0.51801  0.33404  1.0000
  C   C97       1.0  0.62873  0.48181  0.33384  1.0000
  C   C98       1.0  0.64902  0.46594  0.33454  1.0000
  C   C99       1.0  0.68497  0.48579  0.33523  1.0000
  C   C100      1.0  0.80917  0.52218  0.33525  1.0000
  C   C101      1.0  0.78983  0.48576  0.33528  1.0000
  C   C102      1.0  0.80590  0.46588  0.33458  1.0000
  C   C103      1.0  0.84206  0.48172  0.33384  1.0000
  C   C104      1.0  0.86181  0.51792  0.33429  1.0000
  C   C105      1.0  0.84551  0.53784  0.33491  1.0000
  H   H46       1.0  0.63099  0.53006  0.33341  1.0000
  H   H47       1.0  0.69254  0.56409  0.33458  1.0000
  H   H48       1.0  0.63777  0.43970  0.33436  1.0000
  H   H49       1.0  0.69841  0.47295  0.33551  1.0000
  H   H50       1.0  0.76354  0.47293  0.33557  1.0000
  H   H51       1.0  0.79088  0.43964  0.33443  1.0000
  H   H52       1.0  0.86059  0.56402  0.33489  1.0000
  H   H53       1.0  0.88807  0.52994  0.33378  1.0000
  H   H54       1.0  0.86075  0.63821  0.33447  1.0000
  H   H55       1.0  0.89123  0.69947  0.33486  1.0000
  H   H56       1.0  0.79731  0.69946  0.33485  1.0000
  H   H57       1.0  0.76654  0.63820  0.33446  1.0000
  C   C106      1.0  0.24800  0.12415  0.33560  1.0000
  C   C107      1.0  0.17464  0.08745  0.33567  1.0000
  C   C108      1.0  0.19319  0.09673  0.41686  1.0000
  C   C109      1.0  0.22947  0.11489  0.41686  1.0000
  H   H58       1.0  0.24225  0.12128  0.47657  1.0000
  H   H59       1.0  0.18041  0.09034  0.47658  1.0000
  C   C110      1.0  0.86509  0.12408  0.33561  1.0000
  C   C111      1.0  0.90182  0.08745  0.33567  1.0000
  C   C112      1.0  0.89253  0.09670  0.41686  1.0000
  C   C113      1.0  0.87437  0.11482  0.41686  1.0000
  H   H60       1.0  0.86797  0.12120  0.47658  1.0000
  H   H61       1.0  0.89892  0.09032  0.47658  1.0000
  C   C114      1.0  0.86517  0.74128  0.33561  1.0000
  C   C115      1.0  0.90182  0.81463  0.33566  1.0000
  C   C116      1.0  0.89256  0.79609  0.41686  1.0000
  C   C117      1.0  0.87443  0.75981  0.41686  1.0000
  H   H62       1.0  0.86804  0.74703  0.47657  1.0000
  H   H63       1.0  0.89895  0.80887  0.47658  1.0000
  C   C118      1.0  0.57514  0.12998  0.41287  1.0000
  C   C119      1.0  0.54447  0.13068  0.41217  1.0000
  N   N16       1.0  0.53771  0.13483  0.49634  1.0000
  O   O4        1.0  0.58821  0.13430  0.49701  1.0000
  C   C120      1.0  0.56279  0.13506  0.54543  1.0000
  H   H64       1.0  0.56515  0.14020  0.61224  1.0000
  C   C121      1.0  0.85920  0.44539  0.41305  1.0000
  C   C122      1.0  0.85835  0.41396  0.41245  1.0000
  N   N17       1.0  0.85445  0.40316  0.49667  1.0000
  O   O5        1.0  0.85512  0.45431  0.49723  1.0000
  C   C123      1.0  0.85388  0.42788  0.54552  1.0000
  H   H65       1.0  0.85002  0.42577  0.61291  1.0000
  C   C124      1.0  0.54386  0.41413  0.41281  1.0000
  C   C125      1.0  0.57522  0.44481  0.41215  1.0000
  N   N18       1.0  0.58611  0.45157  0.49634  1.0000
  O   O6        1.0  0.53511  0.40106  0.49696  1.0000
  C   C126      1.0  0.56127  0.42648  0.54540  1.0000
  H   H66       1.0  0.56404  0.42412  0.61221  1.0000
