data_image0
_chemical_formula_structural       C2OHCHC2OHCHC2HCO2HCHOC2HC3NC2NCHC2HCO2HCHOC2HC3NC2NCHCHOCHCOHC2NC4NCHOCHCOHC2NC4NC3OHC6O2H2C6O2H2C2H2OCO2HOC2H2OCO2HC2H2OCO2HC2H2OCO2HC3H2C3H2C3H2C3H2C3H3C4NC2NHC4NC2NHC4NC2NHC4NC2NHC3OHC6O2H2C6O2H2C2H2OCO2HOC2H2OCO2HC2H2OCO2HC2H2OCO2HC3H2C3H2C3H2C3H2C3H3C4NC2NHC4NC2NHC4NC2NHC4NC2NHC6O2H2C6O2H2C6O2H2C2H2OCO2HC2H2OCO2HC2H2OCO2HC2H2OCO2HC2H2OCO2HC2H2OCO2HC3H2C3H2C3H2C3H2C3H2C3H2C4NC2NHC4NC2NHC4NC2NHC4NC2NHC4NC2NHC4NC2NHC6O2H2C6O2H2C6O2H2C2H2OCO2HC2H2OCO2HC2H2OCO2HC2H2OCO2HC2H2OCO2HC2H2OCO2HC3H2C3H2C3H2C3H2C3H2C3H2C4NC2NHC4NC2NHC4NC2NHC4NC2NHC4NC2NHC4NC2NH
_chemical_formula_sum              "C360 O96 H168 N48"
_cell_length_a       46.7656
_cell_length_b       46.7657
_cell_length_c       14.8966
_cell_angle_alpha    90
_cell_angle_beta     90
_cell_angle_gamma    120

_space_group_name_H-M_alt    "P 1"
_space_group_IT_number       1

loop_
  _space_group_symop_operation_xyz
  'x, y, z'

loop_
  _atom_site_type_symbol
  _atom_site_label
  _atom_site_symmetry_multiplicity
  _atom_site_fract_x
  _atom_site_fract_y
  _atom_site_fract_z
  _atom_site_occupancy
  C   C1        1.0  0.02318  0.26266  0.32430  1.0000
  C   C2        1.0  0.04299  0.29826  0.31909  1.0000
  O   O1        1.0  0.03122  0.31802  0.29023  1.0000
  H   H1        1.0  0.02761  0.31426  0.22525  1.0000
  C   C3        1.0  0.04222  0.24654  0.33619  1.0000
  H   H2        1.0  0.03124  0.22172  0.34347  1.0000
  C   C4        1.0  0.02318  0.76266  0.32430  1.0000
  C   C5        1.0  0.04299  0.79826  0.31909  1.0000
  O   O2        1.0  0.03122  0.81802  0.29023  1.0000
  H   H3        1.0  0.02761  0.81425  0.22525  1.0000
  C   C6        1.0  0.04221  0.74654  0.33619  1.0000
  H   H4        1.0  0.03124  0.72172  0.34347  1.0000
  C   C7        1.0  0.07704  0.31579  0.34262  1.0000
  C   C8        1.0  0.10972  0.24405  0.27221  1.0000
  H   H5        1.0  0.09991  0.24563  0.21236  1.0000
  C   C9        1.0  0.10121  0.25807  0.00439  1.0000
  O   O3        1.0  0.09263  0.27880  0.00771  1.0000
  O   O4        1.0  0.08211  0.23191  0.04280  1.0000
  H   H6        1.0  0.08408  0.21400  0.04319  1.0000
  C   C10       1.0  0.11113  0.36857  0.27002  1.0000
  H   H7        1.0  0.10216  0.35770  0.20893  1.0000
  O   O5        1.0  0.10274  0.34700  0.00480  1.0000
  C   C11       1.0  0.09331  0.29779  0.35729  1.0000
  C   C12       1.0  0.07680  0.26332  0.34863  1.0000
  H   H8        1.0  0.11836  0.31027  0.36840  1.0000
  C   C13       1.0  0.09614  0.24774  0.35325  1.0000
  C   C14       1.0  0.11357  0.25030  0.43336  1.0000
  C   C15       1.0  0.11661  0.25689  0.59321  1.0000
  N   N1        1.0  0.10162  0.25383  0.51315  1.0000
  C   C16       1.0  0.11309  0.36487  0.43281  1.0000
  C   C17       1.0  0.09691  0.35066  0.34996  1.0000
  N   N2        1.0  0.10109  0.34972  0.51407  1.0000
  C   C18       1.0  0.11671  0.36264  0.59341  1.0000
  H   H9        1.0  0.07999  0.32923  0.51685  1.0000
  C   C19       1.0  0.07704  0.81579  0.34262  1.0000
  C   C20       1.0  0.10972  0.74404  0.27221  1.0000
  H   H10       1.0  0.09991  0.74563  0.21236  1.0000
  C   C21       1.0  0.10121  0.75807  0.00439  1.0000
  O   O6        1.0  0.09263  0.77880  0.00771  1.0000
  O   O7        1.0  0.08211  0.73190  0.04280  1.0000
  H   H11       1.0  0.08408  0.71400  0.04319  1.0000
  C   C22       1.0  0.11113  0.86857  0.27002  1.0000
  H   H12       1.0  0.10216  0.85770  0.20893  1.0000
  O   O8        1.0  0.10274  0.84700  0.00480  1.0000
  C   C23       1.0  0.09331  0.79779  0.35729  1.0000
  C   C24       1.0  0.07680  0.76332  0.34863  1.0000
  H   H13       1.0  0.11836  0.81027  0.36840  1.0000
  C   C25       1.0  0.09614  0.74774  0.35325  1.0000
  C   C26       1.0  0.11357  0.75030  0.43336  1.0000
  C   C27       1.0  0.11661  0.75689  0.59321  1.0000
  N   N3        1.0  0.10162  0.75383  0.51315  1.0000
  C   C28       1.0  0.11309  0.86487  0.43281  1.0000
  C   C29       1.0  0.09691  0.85066  0.34996  1.0000
  N   N4        1.0  0.10109  0.84971  0.51407  1.0000
  C   C30       1.0  0.11671  0.86264  0.59340  1.0000
  H   H14       1.0  0.07999  0.82923  0.51685  1.0000
  C   C31       1.0  0.13981  0.24391  0.27039  1.0000
  H   H15       1.0  0.15048  0.24549  0.20918  1.0000
  O   O9        1.0  0.16206  0.25785  0.00496  1.0000
  C   C32       1.0  0.14136  0.39867  0.27159  1.0000
  H   H16       1.0  0.15282  0.40819  0.21164  1.0000
  C   C33       1.0  0.16375  0.40791  0.00387  1.0000
  O   O10       1.0  0.15644  0.42673  0.04284  1.0000
  H   H17       1.0  0.13648  0.42455  0.04349  1.0000
  C   C34       1.0  0.14394  0.25017  0.43310  1.0000
  C   C35       1.0  0.15793  0.24798  0.35008  1.0000
  N   N5        1.0  0.15920  0.25342  0.51425  1.0000
  C   C36       1.0  0.14638  0.25621  0.59365  1.0000
  C   C37       1.0  0.15849  0.41255  0.35269  1.0000
  C   C38       1.0  0.14356  0.39527  0.43287  1.0000
  C   C39       1.0  0.14713  0.39245  0.59277  1.0000
  N   N6        1.0  0.15906  0.40734  0.51258  1.0000
  C   C40       1.0  0.13981  0.74391  0.27039  1.0000
  H   H18       1.0  0.15049  0.74549  0.20918  1.0000
  O   O11       1.0  0.16206  0.75785  0.00496  1.0000
  C   C41       1.0  0.14136  0.89867  0.27159  1.0000
  H   H19       1.0  0.15282  0.90818  0.21164  1.0000
  C   C42       1.0  0.16375  0.90791  0.00387  1.0000
  O   O12       1.0  0.15644  0.92673  0.04284  1.0000
  H   H20       1.0  0.13648  0.92455  0.04349  1.0000
  C   C43       1.0  0.14394  0.75017  0.43310  1.0000
  C   C44       1.0  0.15793  0.74797  0.35008  1.0000
  N   N7        1.0  0.15920  0.75341  0.51425  1.0000
  C   C45       1.0  0.14638  0.75621  0.59365  1.0000
  C   C46       1.0  0.15849  0.91255  0.35269  1.0000
  C   C47       1.0  0.14356  0.89527  0.43287  1.0000
  C   C48       1.0  0.14713  0.89245  0.59277  1.0000
  N   N8        1.0  0.15906  0.90734  0.51258  1.0000
  C   C49       1.0  0.48717  0.24418  0.32424  1.0000
  C   C50       1.0  0.43326  0.19106  0.34199  1.0000
  C   C51       1.0  0.46736  0.20858  0.31895  1.0000
  O   O13       1.0  0.47915  0.18881  0.29036  1.0000
  H   H21       1.0  0.48277  0.19252  0.22538  1.0000
  C   C52       1.0  0.26437  0.24462  0.32414  1.0000
  C   C53       1.0  0.31747  0.24388  0.34279  1.0000
  C   C54       1.0  0.29996  0.26039  0.31893  1.0000
  C   C55       1.0  0.24590  0.26217  0.32418  1.0000
  C   C56       1.0  0.21031  0.24641  0.31897  1.0000
  C   C57       1.0  0.19281  0.26295  0.34265  1.0000
  O   O14       1.0  0.31974  0.29191  0.28996  1.0000
  O   O15       1.0  0.19052  0.21488  0.29014  1.0000
  H   H22       1.0  0.31593  0.29173  0.22500  1.0000
  H   H23       1.0  0.19428  0.21503  0.22515  1.0000
  C   C58       1.0  0.26398  0.02145  0.32455  1.0000
  C   C59       1.0  0.26473  0.07532  0.34282  1.0000
  C   C60       1.0  0.24820  0.04127  0.31924  1.0000
  C   C61       1.0  0.24644  0.48543  0.32431  1.0000
  C   C62       1.0  0.26221  0.46561  0.31881  1.0000
  C   C63       1.0  0.24558  0.43146  0.34132  1.0000
  O   O16       1.0  0.21668  0.02949  0.29030  1.0000
  O   O17       1.0  0.29380  0.47742  0.29045  1.0000
  H   H24       1.0  0.21685  0.02586  0.22534  1.0000
  H   H25       1.0  0.29377  0.48111  0.22548  1.0000
  C   C64       1.0  0.26423  0.39720  0.26953  1.0000
  C   C65       1.0  0.26432  0.36708  0.27172  1.0000
  H   H26       1.0  0.26245  0.35550  0.21204  1.0000
  H   H27       1.0  0.26253  0.40617  0.20821  1.0000
  O   O18       1.0  0.25109  0.40649  0.00402  1.0000
  C   C66       1.0  0.25098  0.34552  0.00447  1.0000
  O   O19       1.0  0.22976  0.31637  0.00742  1.0000
  O   O20       1.0  0.27709  0.35215  0.04220  1.0000
  H   H28       1.0  0.29517  0.37189  0.04227  1.0000
  O   O21       1.0  0.19312  0.41676  0.00688  1.0000
  C   C67       1.0  0.37039  0.26280  0.27038  1.0000
  C   C68       1.0  0.40055  0.26278  0.27187  1.0000
  H   H29       1.0  0.41017  0.26103  0.21189  1.0000
  H   H30       1.0  0.35963  0.26120  0.20930  1.0000
  O   O22       1.0  0.34861  0.24915  0.00498  1.0000
  C   C69       1.0  0.40951  0.24903  0.00402  1.0000
  O   O23       1.0  0.41828  0.22845  0.00712  1.0000
  O   O24       1.0  0.42844  0.27519  0.04268  1.0000
  H   H31       1.0  0.42633  0.29301  0.04322  1.0000
  C   C70       1.0  0.24566  0.10931  0.27054  1.0000
  C   C71       1.0  0.24573  0.13951  0.27237  1.0000
  H   H32       1.0  0.24729  0.15091  0.21256  1.0000
  H   H33       1.0  0.24724  0.10023  0.20930  1.0000
  O   O25       1.0  0.25959  0.10091  0.00505  1.0000
  C   C72       1.0  0.25973  0.16194  0.00464  1.0000
  O   O26       1.0  0.28044  0.19124  0.00806  1.0000
  O   O27       1.0  0.23354  0.15484  0.04296  1.0000
  H   H34       1.0  0.21565  0.13497  0.04330  1.0000
  C   C73       1.0  0.39903  0.13818  0.27002  1.0000
  C   C74       1.0  0.36890  0.10799  0.27209  1.0000
  H   H35       1.0  0.35732  0.09830  0.21237  1.0000
  H   H36       1.0  0.40802  0.14887  0.20874  1.0000
  O   O28       1.0  0.40822  0.16039  0.00460  1.0000
  C   C75       1.0  0.34720  0.09957  0.00480  1.0000
  O   O29       1.0  0.31804  0.09160  0.00765  1.0000
  O   O30       1.0  0.35386  0.08012  0.04260  1.0000
  H   H37       1.0  0.37360  0.08180  0.04273  1.0000
  C   C76       1.0  0.46814  0.26031  0.33616  1.0000
  C   C77       1.0  0.43353  0.24354  0.34801  1.0000
  C   C78       1.0  0.41699  0.20907  0.35651  1.0000
  H   H38       1.0  0.47913  0.28513  0.34351  1.0000
  H   H39       1.0  0.39192  0.19659  0.36722  1.0000
  C   C79       1.0  0.24822  0.20946  0.33600  1.0000
  C   C80       1.0  0.26499  0.19166  0.34875  1.0000
  C   C81       1.0  0.29945  0.20963  0.35776  1.0000
  H   H40       1.0  0.22339  0.19562  0.34312  1.0000
  H   H41       1.0  0.31191  0.19705  0.36895  1.0000
  C   C82       1.0  0.21084  0.29722  0.35737  1.0000
  C   C83       1.0  0.24530  0.31516  0.34843  1.0000
  C   C84       1.0  0.26206  0.29733  0.33615  1.0000
  H   H42       1.0  0.19838  0.30981  0.36843  1.0000
  H   H43       1.0  0.28689  0.31116  0.34313  1.0000
  C   C85       1.0  0.29912  0.04047  0.33656  1.0000
  C   C86       1.0  0.31694  0.07506  0.34868  1.0000
  C   C87       1.0  0.29900  0.09157  0.35757  1.0000
  H   H44       1.0  0.31297  0.02948  0.34375  1.0000
  H   H45       1.0  0.31159  0.11663  0.36844  1.0000
  C   C88       1.0  0.21127  0.41518  0.35542  1.0000
  C   C89       1.0  0.19340  0.43179  0.34744  1.0000
  C   C90       1.0  0.21128  0.46644  0.33629  1.0000
  H   H46       1.0  0.19866  0.39011  0.36614  1.0000
  H   H47       1.0  0.19751  0.47746  0.34435  1.0000
  H   H48       1.0  0.17963  0.25269  0.51692  1.0000
  C   C91       1.0  0.26091  0.35008  0.35318  1.0000
  C   C92       1.0  0.25849  0.36515  0.43301  1.0000
  C   C93       1.0  0.25858  0.39563  0.43232  1.0000
  C   C94       1.0  0.26059  0.41162  0.34910  1.0000
  N   N9        1.0  0.25541  0.40780  0.51330  1.0000
  C   C95       1.0  0.25271  0.39234  0.59292  1.0000
  C   C96       1.0  0.25208  0.36191  0.59291  1.0000
  N   N10       1.0  0.25507  0.34983  0.51300  1.0000
  H   H49       1.0  0.25607  0.42893  0.51566  1.0000
  C   C97       1.0  0.41423  0.25916  0.35279  1.0000
  C   C98       1.0  0.39690  0.25666  0.43305  1.0000
  C   C99       1.0  0.36651  0.25675  0.43299  1.0000
  C   C100      1.0  0.35233  0.25886  0.35020  1.0000
  N   N11       1.0  0.35133  0.25354  0.51425  1.0000
  C   C101      1.0  0.36424  0.25080  0.59357  1.0000
  C   C102      1.0  0.39403  0.25016  0.59293  1.0000
  N   N12       1.0  0.40894  0.25318  0.51276  1.0000
  H   H50       1.0  0.33088  0.25422  0.51706  1.0000
  C   C103      1.0  0.24941  0.15673  0.35351  1.0000
  C   C104      1.0  0.25200  0.14188  0.43358  1.0000
  C   C105      1.0  0.25191  0.11140  0.43320  1.0000
  C   C106      1.0  0.24975  0.09522  0.35014  1.0000
  N   N13       1.0  0.25517  0.09937  0.51433  1.0000
  C   C107      1.0  0.25794  0.11496  0.59378  1.0000
  C   C108      1.0  0.25858  0.14539  0.59341  1.0000
  N   N14       1.0  0.25551  0.15734  0.51339  1.0000
  H   H51       1.0  0.25446  0.07823  0.51697  1.0000
  C   C109      1.0  0.35186  0.09436  0.35350  1.0000
  C   C110      1.0  0.36691  0.11180  0.43339  1.0000
  C   C111      1.0  0.39740  0.14219  0.43282  1.0000
  C   C112      1.0  0.41341  0.15620  0.34967  1.0000
  N   N15       1.0  0.40956  0.15747  0.51386  1.0000
  C   C113      1.0  0.39407  0.14468  0.59343  1.0000
  C   C114      1.0  0.36363  0.11489  0.59331  1.0000
  N   N16       1.0  0.35156  0.09987  0.51333  1.0000
  H   H52       1.0  0.43070  0.17792  0.51631  1.0000
  C   C115      1.0  0.48717  0.74418  0.32424  1.0000
  C   C116      1.0  0.43326  0.69106  0.34199  1.0000
  C   C117      1.0  0.46736  0.70858  0.31895  1.0000
  O   O31       1.0  0.47915  0.68881  0.29036  1.0000
  H   H53       1.0  0.48277  0.69252  0.22538  1.0000
  C   C118      1.0  0.26437  0.74462  0.32414  1.0000
  C   C119      1.0  0.31747  0.74388  0.34279  1.0000
  C   C120      1.0  0.29996  0.76039  0.31893  1.0000
  C   C121      1.0  0.24590  0.76217  0.32418  1.0000
  C   C122      1.0  0.21031  0.74641  0.31897  1.0000
  C   C123      1.0  0.19280  0.76295  0.34265  1.0000
  O   O32       1.0  0.31974  0.79191  0.28996  1.0000
  O   O33       1.0  0.19052  0.71488  0.29014  1.0000
  H   H54       1.0  0.31593  0.79173  0.22500  1.0000
  H   H55       1.0  0.19428  0.71503  0.22515  1.0000
  C   C124      1.0  0.26398  0.52145  0.32455  1.0000
  C   C125      1.0  0.26473  0.57532  0.34282  1.0000
  C   C126      1.0  0.24820  0.54127  0.31924  1.0000
  C   C127      1.0  0.24644  0.98543  0.32431  1.0000
  C   C128      1.0  0.26220  0.96561  0.31881  1.0000
  C   C129      1.0  0.24558  0.93146  0.34132  1.0000
  O   O34       1.0  0.21668  0.52950  0.29030  1.0000
  O   O35       1.0  0.29380  0.97742  0.29045  1.0000
  H   H56       1.0  0.21685  0.52586  0.22534  1.0000
  H   H57       1.0  0.29377  0.98111  0.22548  1.0000
  C   C130      1.0  0.26423  0.89720  0.26953  1.0000
  C   C131      1.0  0.26431  0.86708  0.27172  1.0000
  H   H58       1.0  0.26245  0.85550  0.21204  1.0000
  H   H59       1.0  0.26253  0.90617  0.20821  1.0000
  O   O36       1.0  0.25109  0.90649  0.00402  1.0000
  C   C132      1.0  0.25098  0.84552  0.00447  1.0000
  O   O37       1.0  0.22976  0.81636  0.00742  1.0000
  O   O38       1.0  0.27709  0.85215  0.04220  1.0000
  H   H60       1.0  0.29517  0.87188  0.04227  1.0000
  O   O39       1.0  0.19312  0.91676  0.00688  1.0000
  C   C133      1.0  0.37039  0.76280  0.27038  1.0000
  C   C134      1.0  0.40055  0.76278  0.27187  1.0000
  H   H61       1.0  0.41017  0.76103  0.21189  1.0000
  H   H62       1.0  0.35962  0.76119  0.20930  1.0000
  O   O40       1.0  0.34861  0.74915  0.00498  1.0000
  C   C135      1.0  0.40951  0.74903  0.00402  1.0000
  O   O41       1.0  0.41828  0.72845  0.00712  1.0000
  O   O42       1.0  0.42844  0.77519  0.04268  1.0000
  H   H63       1.0  0.42633  0.79301  0.04322  1.0000
  C   C136      1.0  0.24566  0.60931  0.27054  1.0000
  C   C137      1.0  0.24573  0.63951  0.27237  1.0000
  H   H64       1.0  0.24729  0.65091  0.21256  1.0000
  H   H65       1.0  0.24724  0.60023  0.20930  1.0000
  O   O43       1.0  0.25959  0.60091  0.00505  1.0000
  C   C138      1.0  0.25973  0.66194  0.00464  1.0000
  O   O44       1.0  0.28044  0.69124  0.00806  1.0000
  O   O45       1.0  0.23354  0.65484  0.04296  1.0000
  H   H66       1.0  0.21565  0.63497  0.04330  1.0000
  C   C139      1.0  0.39903  0.63818  0.27002  1.0000
  C   C140      1.0  0.36890  0.60799  0.27209  1.0000
  H   H67       1.0  0.35732  0.59830  0.21237  1.0000
  H   H68       1.0  0.40802  0.64887  0.20874  1.0000
  O   O46       1.0  0.40822  0.66039  0.00460  1.0000
  C   C141      1.0  0.34720  0.59957  0.00480  1.0000
  O   O47       1.0  0.31804  0.59160  0.00765  1.0000
  O   O48       1.0  0.35386  0.58012  0.04260  1.0000
  H   H69       1.0  0.37360  0.58180  0.04273  1.0000
  C   C142      1.0  0.46814  0.76031  0.33616  1.0000
  C   C143      1.0  0.43353  0.74354  0.34801  1.0000
  C   C144      1.0  0.41698  0.70907  0.35651  1.0000
  H   H70       1.0  0.47913  0.78513  0.34351  1.0000
  H   H71       1.0  0.39192  0.69659  0.36722  1.0000
  C   C145      1.0  0.24822  0.70945  0.33600  1.0000
  C   C146      1.0  0.26499  0.69166  0.34875  1.0000
  C   C147      1.0  0.29945  0.70963  0.35776  1.0000
  H   H72       1.0  0.22339  0.69561  0.34312  1.0000
  H   H73       1.0  0.31191  0.69705  0.36895  1.0000
  C   C148      1.0  0.21084  0.79722  0.35738  1.0000
  C   C149      1.0  0.24530  0.81516  0.34843  1.0000
  C   C150      1.0  0.26206  0.79732  0.33616  1.0000
  H   H74       1.0  0.19838  0.80981  0.36843  1.0000
  H   H75       1.0  0.28689  0.81116  0.34313  1.0000
  C   C151      1.0  0.29912  0.54046  0.33656  1.0000
  C   C152      1.0  0.31695  0.57506  0.34868  1.0000
  C   C153      1.0  0.29900  0.59157  0.35757  1.0000
  H   H76       1.0  0.31297  0.52948  0.34375  1.0000
  H   H77       1.0  0.31159  0.61663  0.36844  1.0000
  C   C154      1.0  0.21127  0.91518  0.35542  1.0000
  C   C155      1.0  0.19340  0.93179  0.34744  1.0000
  C   C156      1.0  0.21128  0.96644  0.33629  1.0000
  H   H78       1.0  0.19866  0.89011  0.36614  1.0000
  H   H79       1.0  0.19751  0.97746  0.34435  1.0000
  H   H80       1.0  0.17963  0.75269  0.51692  1.0000
  C   C157      1.0  0.26091  0.85008  0.35318  1.0000
  C   C158      1.0  0.25849  0.86515  0.43301  1.0000
  C   C159      1.0  0.25858  0.89563  0.43232  1.0000
  C   C160      1.0  0.26059  0.91162  0.34910  1.0000
  N   N17       1.0  0.25541  0.90780  0.51330  1.0000
  C   C161      1.0  0.25271  0.89234  0.59292  1.0000
  C   C162      1.0  0.25208  0.86191  0.59291  1.0000
  N   N18       1.0  0.25507  0.84983  0.51300  1.0000
  H   H81       1.0  0.25607  0.92892  0.51566  1.0000
  C   C163      1.0  0.41423  0.75916  0.35279  1.0000
  C   C164      1.0  0.39690  0.75666  0.43305  1.0000
  C   C165      1.0  0.36651  0.75675  0.43299  1.0000
  C   C166      1.0  0.35233  0.75886  0.35020  1.0000
  N   N19       1.0  0.35133  0.75354  0.51425  1.0000
  C   C167      1.0  0.36424  0.75080  0.59357  1.0000
  C   C168      1.0  0.39403  0.75016  0.59293  1.0000
  N   N20       1.0  0.40894  0.75318  0.51276  1.0000
  H   H82       1.0  0.33088  0.75422  0.51706  1.0000
  C   C169      1.0  0.24941  0.65673  0.35351  1.0000
  C   C170      1.0  0.25200  0.64188  0.43358  1.0000
  C   C171      1.0  0.25191  0.61140  0.43320  1.0000
  C   C172      1.0  0.24975  0.59522  0.35014  1.0000
  N   N21       1.0  0.25517  0.59937  0.51433  1.0000
  C   C173      1.0  0.25794  0.61496  0.59378  1.0000
  C   C174      1.0  0.25858  0.64539  0.59341  1.0000
  N   N22       1.0  0.25551  0.65734  0.51339  1.0000
  H   H83       1.0  0.25446  0.57823  0.51697  1.0000
  C   C175      1.0  0.35186  0.59436  0.35350  1.0000
  C   C176      1.0  0.36691  0.61180  0.43339  1.0000
  C   C177      1.0  0.39741  0.64219  0.43282  1.0000
  C   C178      1.0  0.41342  0.65620  0.34967  1.0000
  N   N23       1.0  0.40956  0.65747  0.51386  1.0000
  C   C179      1.0  0.39407  0.64467  0.59343  1.0000
  C   C180      1.0  0.36363  0.61489  0.59331  1.0000
  N   N24       1.0  0.35156  0.59987  0.51333  1.0000
  H   H84       1.0  0.43070  0.67792  0.51631  1.0000
  C   C181      1.0  0.98717  0.24418  0.32424  1.0000
  C   C182      1.0  0.93326  0.19106  0.34199  1.0000
  C   C183      1.0  0.96736  0.20858  0.31895  1.0000
  C   C184      1.0  0.52319  0.26266  0.32430  1.0000
  C   C185      1.0  0.54299  0.29826  0.31909  1.0000
  C   C186      1.0  0.57704  0.31579  0.34262  1.0000
  O   O49       1.0  0.97915  0.18881  0.29036  1.0000
  O   O50       1.0  0.53122  0.31802  0.29023  1.0000
  H   H85       1.0  0.98277  0.19252  0.22538  1.0000
  H   H86       1.0  0.52761  0.31426  0.22525  1.0000
  C   C187      1.0  0.76437  0.24462  0.32414  1.0000
  C   C188      1.0  0.81747  0.24388  0.34279  1.0000
  C   C189      1.0  0.79996  0.26039  0.31893  1.0000
  C   C190      1.0  0.74590  0.26217  0.32418  1.0000
  C   C191      1.0  0.71031  0.24641  0.31897  1.0000
  C   C192      1.0  0.69281  0.26295  0.34265  1.0000
  O   O51       1.0  0.81974  0.29191  0.28996  1.0000
  O   O52       1.0  0.69052  0.21488  0.29014  1.0000
  H   H87       1.0  0.81593  0.29173  0.22500  1.0000
  H   H88       1.0  0.69428  0.21503  0.22515  1.0000
  C   C193      1.0  0.76398  0.02145  0.32455  1.0000
  C   C194      1.0  0.76473  0.07532  0.34282  1.0000
  C   C195      1.0  0.74820  0.04127  0.31924  1.0000
  C   C196      1.0  0.74644  0.48543  0.32431  1.0000
  C   C197      1.0  0.76221  0.46561  0.31881  1.0000
  C   C198      1.0  0.74558  0.43146  0.34132  1.0000
  O   O53       1.0  0.71668  0.02949  0.29030  1.0000
  O   O54       1.0  0.79380  0.47742  0.29045  1.0000
  H   H89       1.0  0.71685  0.02586  0.22534  1.0000
  H   H90       1.0  0.79377  0.48111  0.22548  1.0000
  C   C199      1.0  0.63982  0.24391  0.27039  1.0000
  C   C200      1.0  0.60972  0.24405  0.27221  1.0000
  H   H91       1.0  0.59991  0.24563  0.21236  1.0000
  H   H92       1.0  0.65048  0.24549  0.20918  1.0000
  O   O55       1.0  0.66205  0.25785  0.00496  1.0000
  C   C201      1.0  0.60120  0.25807  0.00439  1.0000
  O   O56       1.0  0.59263  0.27880  0.00771  1.0000
  O   O57       1.0  0.58211  0.23191  0.04280  1.0000
  H   H93       1.0  0.58408  0.21400  0.04319  1.0000
  C   C202      1.0  0.76423  0.39720  0.26953  1.0000
  C   C203      1.0  0.76431  0.36708  0.27172  1.0000
  H   H94       1.0  0.76245  0.35550  0.21204  1.0000
  H   H95       1.0  0.76253  0.40617  0.20821  1.0000
  O   O58       1.0  0.75109  0.40649  0.00402  1.0000
  C   C204      1.0  0.75098  0.34552  0.00447  1.0000
  O   O59       1.0  0.72976  0.31637  0.00742  1.0000
  O   O60       1.0  0.77709  0.35215  0.04220  1.0000
  H   H96       1.0  0.79517  0.37189  0.04227  1.0000
  C   C205      1.0  0.61113  0.36857  0.27002  1.0000
  C   C206      1.0  0.64136  0.39867  0.27159  1.0000
  H   H97       1.0  0.65282  0.40819  0.21164  1.0000
  H   H98       1.0  0.60216  0.35770  0.20893  1.0000
  O   O61       1.0  0.60274  0.34700  0.00480  1.0000
  C   C207      1.0  0.66375  0.40791  0.00387  1.0000
  O   O62       1.0  0.69312  0.41676  0.00688  1.0000
  O   O63       1.0  0.65644  0.42673  0.04284  1.0000
  H   H99       1.0  0.63648  0.42455  0.04349  1.0000
  C   C208      1.0  0.87039  0.26280  0.27038  1.0000
  C   C209      1.0  0.90055  0.26278  0.27187  1.0000
  H   H100      1.0  0.91017  0.26103  0.21189  1.0000
  H   H101      1.0  0.85963  0.26120  0.20930  1.0000
  O   O64       1.0  0.84861  0.24915  0.00498  1.0000
  C   C210      1.0  0.90951  0.24903  0.00402  1.0000
  O   O65       1.0  0.91828  0.22845  0.00712  1.0000
  O   O66       1.0  0.92844  0.27519  0.04268  1.0000
  H   H102      1.0  0.92634  0.29301  0.04322  1.0000
  C   C211      1.0  0.74566  0.10931  0.27054  1.0000
  C   C212      1.0  0.74573  0.13951  0.27237  1.0000
  H   H103      1.0  0.74730  0.15091  0.21256  1.0000
  H   H104      1.0  0.74724  0.10023  0.20930  1.0000
  O   O67       1.0  0.75959  0.10091  0.00505  1.0000
  C   C213      1.0  0.75973  0.16194  0.00464  1.0000
  O   O68       1.0  0.78044  0.19124  0.00806  1.0000
  O   O69       1.0  0.73354  0.15484  0.04296  1.0000
  H   H105      1.0  0.71565  0.13497  0.04330  1.0000
  C   C214      1.0  0.89903  0.13818  0.27002  1.0000
  C   C215      1.0  0.86890  0.10799  0.27209  1.0000
  H   H106      1.0  0.85733  0.09830  0.21237  1.0000
  H   H107      1.0  0.90802  0.14887  0.20874  1.0000
  O   O70       1.0  0.90822  0.16039  0.00460  1.0000
  C   C216      1.0  0.84721  0.09957  0.00480  1.0000
  O   O71       1.0  0.81804  0.09160  0.00765  1.0000
  O   O72       1.0  0.85386  0.08012  0.04260  1.0000
  H   H108      1.0  0.87360  0.08180  0.04273  1.0000
  C   C217      1.0  0.96815  0.26031  0.33616  1.0000
  C   C218      1.0  0.93353  0.24354  0.34801  1.0000
  C   C219      1.0  0.91699  0.20907  0.35651  1.0000
  H   H109      1.0  0.97913  0.28513  0.34351  1.0000
  H   H110      1.0  0.89192  0.19659  0.36722  1.0000
  C   C220      1.0  0.59331  0.29779  0.35729  1.0000
  C   C221      1.0  0.57680  0.26332  0.34863  1.0000
  C   C222      1.0  0.54222  0.24654  0.33619  1.0000
  H   H111      1.0  0.61836  0.31027  0.36840  1.0000
  H   H112      1.0  0.53124  0.22172  0.34347  1.0000
  C   C223      1.0  0.74822  0.20946  0.33600  1.0000
  C   C224      1.0  0.76499  0.19166  0.34875  1.0000
  C   C225      1.0  0.79945  0.20963  0.35776  1.0000
  H   H113      1.0  0.72339  0.19562  0.34312  1.0000
  H   H114      1.0  0.81191  0.19705  0.36895  1.0000
  C   C226      1.0  0.71084  0.29722  0.35737  1.0000
  C   C227      1.0  0.74530  0.31516  0.34843  1.0000
  C   C228      1.0  0.76206  0.29733  0.33615  1.0000
  H   H115      1.0  0.69838  0.30981  0.36843  1.0000
  H   H116      1.0  0.78689  0.31116  0.34313  1.0000
  C   C229      1.0  0.79913  0.04047  0.33656  1.0000
  C   C230      1.0  0.81695  0.07506  0.34868  1.0000
  C   C231      1.0  0.79900  0.09157  0.35757  1.0000
  H   H117      1.0  0.81297  0.02948  0.34375  1.0000
  H   H118      1.0  0.81159  0.11663  0.36844  1.0000
  C   C232      1.0  0.71127  0.41518  0.35542  1.0000
  C   C233      1.0  0.69340  0.43179  0.34744  1.0000
  C   C234      1.0  0.71128  0.46644  0.33629  1.0000
  H   H119      1.0  0.69866  0.39011  0.36614  1.0000
  H   H120      1.0  0.69751  0.47746  0.34435  1.0000
  C   C235      1.0  0.59614  0.24774  0.35325  1.0000
  C   C236      1.0  0.61357  0.25030  0.43336  1.0000
  C   C237      1.0  0.64394  0.25017  0.43310  1.0000
  C   C238      1.0  0.65793  0.24798  0.35008  1.0000
  N   N25       1.0  0.65920  0.25342  0.51425  1.0000
  C   C239      1.0  0.64638  0.25621  0.59365  1.0000
  C   C240      1.0  0.61661  0.25689  0.59321  1.0000
  N   N26       1.0  0.60162  0.25383  0.51315  1.0000
  H   H121      1.0  0.67963  0.25269  0.51692  1.0000
  C   C241      1.0  0.76091  0.35008  0.35318  1.0000
  C   C242      1.0  0.75849  0.36515  0.43301  1.0000
  C   C243      1.0  0.75858  0.39563  0.43232  1.0000
  C   C244      1.0  0.76059  0.41162  0.34910  1.0000
  N   N27       1.0  0.75541  0.40780  0.51330  1.0000
  C   C245      1.0  0.75271  0.39234  0.59292  1.0000
  C   C246      1.0  0.75208  0.36191  0.59291  1.0000
  N   N28       1.0  0.75507  0.34983  0.51300  1.0000
  H   H122      1.0  0.75607  0.42893  0.51566  1.0000
  C   C247      1.0  0.65849  0.41255  0.35269  1.0000
  C   C248      1.0  0.64356  0.39527  0.43287  1.0000
  C   C249      1.0  0.61309  0.36487  0.43281  1.0000
  C   C250      1.0  0.59691  0.35066  0.34996  1.0000
  N   N29       1.0  0.60109  0.34972  0.51407  1.0000
  C   C251      1.0  0.61671  0.36264  0.59341  1.0000
  C   C252      1.0  0.64713  0.39245  0.59277  1.0000
  N   N30       1.0  0.65906  0.40734  0.51258  1.0000
  H   H123      1.0  0.57999  0.32923  0.51685  1.0000
  C   C253      1.0  0.91423  0.25916  0.35279  1.0000
  C   C254      1.0  0.89690  0.25666  0.43305  1.0000
  C   C255      1.0  0.86651  0.25675  0.43299  1.0000
  C   C256      1.0  0.85233  0.25886  0.35020  1.0000
  N   N31       1.0  0.85133  0.25354  0.51425  1.0000
  C   C257      1.0  0.86424  0.25080  0.59357  1.0000
  C   C258      1.0  0.89403  0.25016  0.59293  1.0000
  N   N32       1.0  0.90894  0.25318  0.51276  1.0000
  H   H124      1.0  0.83088  0.25422  0.51706  1.0000
  C   C259      1.0  0.74941  0.15673  0.35351  1.0000
  C   C260      1.0  0.75200  0.14188  0.43358  1.0000
  C   C261      1.0  0.75192  0.11140  0.43320  1.0000
  C   C262      1.0  0.74976  0.09522  0.35014  1.0000
  N   N33       1.0  0.75517  0.09937  0.51433  1.0000
  C   C263      1.0  0.75794  0.11496  0.59378  1.0000
  C   C264      1.0  0.75858  0.14539  0.59341  1.0000
  N   N34       1.0  0.75551  0.15734  0.51339  1.0000
  H   H125      1.0  0.75446  0.07823  0.51697  1.0000
  C   C265      1.0  0.85186  0.09436  0.35350  1.0000
  C   C266      1.0  0.86691  0.11180  0.43339  1.0000
  C   C267      1.0  0.89741  0.14219  0.43282  1.0000
  C   C268      1.0  0.91342  0.15620  0.34967  1.0000
  N   N35       1.0  0.90956  0.15747  0.51386  1.0000
  C   C269      1.0  0.89407  0.14468  0.59343  1.0000
  C   C270      1.0  0.86363  0.11489  0.59331  1.0000
  N   N36       1.0  0.85156  0.09987  0.51333  1.0000
  H   H126      1.0  0.93070  0.17792  0.51631  1.0000
  C   C271      1.0  0.98717  0.74418  0.32424  1.0000
  C   C272      1.0  0.93326  0.69106  0.34199  1.0000
  C   C273      1.0  0.96736  0.70858  0.31895  1.0000
  C   C274      1.0  0.52318  0.76266  0.32430  1.0000
  C   C275      1.0  0.54299  0.79826  0.31909  1.0000
  C   C276      1.0  0.57704  0.81579  0.34262  1.0000
  O   O73       1.0  0.97915  0.68881  0.29036  1.0000
  O   O74       1.0  0.53122  0.81802  0.29023  1.0000
  H   H127      1.0  0.98277  0.69252  0.22538  1.0000
  H   H128      1.0  0.52761  0.81425  0.22525  1.0000
  C   C277      1.0  0.76437  0.74462  0.32414  1.0000
  C   C278      1.0  0.81747  0.74388  0.34279  1.0000
  C   C279      1.0  0.79996  0.76039  0.31893  1.0000
  C   C280      1.0  0.74590  0.76217  0.32418  1.0000
  C   C281      1.0  0.71031  0.74641  0.31897  1.0000
  C   C282      1.0  0.69281  0.76295  0.34265  1.0000
  O   O75       1.0  0.81974  0.79191  0.28996  1.0000
  O   O76       1.0  0.69052  0.71488  0.29014  1.0000
  H   H129      1.0  0.81593  0.79173  0.22500  1.0000
  H   H130      1.0  0.69428  0.71503  0.22515  1.0000
  C   C283      1.0  0.76398  0.52145  0.32455  1.0000
  C   C284      1.0  0.76473  0.57532  0.34282  1.0000
  C   C285      1.0  0.74820  0.54127  0.31924  1.0000
  C   C286      1.0  0.74644  0.98543  0.32431  1.0000
  C   C287      1.0  0.76221  0.96561  0.31881  1.0000
  C   C288      1.0  0.74558  0.93146  0.34132  1.0000
  O   O77       1.0  0.71668  0.52950  0.29030  1.0000
  O   O78       1.0  0.79380  0.97742  0.29045  1.0000
  H   H131      1.0  0.71685  0.52586  0.22534  1.0000
  H   H132      1.0  0.79377  0.98111  0.22548  1.0000
  C   C289      1.0  0.63981  0.74391  0.27039  1.0000
  C   C290      1.0  0.60972  0.74404  0.27221  1.0000
  H   H133      1.0  0.59991  0.74563  0.21236  1.0000
  H   H134      1.0  0.65048  0.74549  0.20918  1.0000
  O   O79       1.0  0.66205  0.75785  0.00496  1.0000
  C   C291      1.0  0.60120  0.75807  0.00439  1.0000
  O   O80       1.0  0.59263  0.77880  0.00771  1.0000
  O   O81       1.0  0.58211  0.73190  0.04280  1.0000
  H   H135      1.0  0.58408  0.71400  0.04319  1.0000
  C   C292      1.0  0.76423  0.89720  0.26953  1.0000
  C   C293      1.0  0.76431  0.86708  0.27172  1.0000
  H   H136      1.0  0.76245  0.85550  0.21204  1.0000
  H   H137      1.0  0.76253  0.90617  0.20821  1.0000
  O   O82       1.0  0.75109  0.90649  0.00402  1.0000
  C   C294      1.0  0.75098  0.84552  0.00447  1.0000
  O   O83       1.0  0.72976  0.81636  0.00742  1.0000
  O   O84       1.0  0.77709  0.85215  0.04220  1.0000
  H   H138      1.0  0.79517  0.87188  0.04227  1.0000
  C   C295      1.0  0.61113  0.86857  0.27002  1.0000
  C   C296      1.0  0.64136  0.89867  0.27159  1.0000
  H   H139      1.0  0.65282  0.90818  0.21164  1.0000
  H   H140      1.0  0.60216  0.85770  0.20893  1.0000
  O   O85       1.0  0.60274  0.84700  0.00480  1.0000
  C   C297      1.0  0.66375  0.90791  0.00387  1.0000
  O   O86       1.0  0.69312  0.91676  0.00688  1.0000
  O   O87       1.0  0.65644  0.92673  0.04284  1.0000
  H   H141      1.0  0.63648  0.92455  0.04349  1.0000
  C   C298      1.0  0.87039  0.76280  0.27038  1.0000
  C   C299      1.0  0.90055  0.76278  0.27187  1.0000
  H   H142      1.0  0.91017  0.76103  0.21189  1.0000
  H   H143      1.0  0.85963  0.76119  0.20930  1.0000
  O   O88       1.0  0.84861  0.74915  0.00498  1.0000
  C   C300      1.0  0.90951  0.74903  0.00402  1.0000
  O   O89       1.0  0.91828  0.72845  0.00712  1.0000
  O   O90       1.0  0.92844  0.77519  0.04268  1.0000
  H   H144      1.0  0.92634  0.79301  0.04322  1.0000
  C   C301      1.0  0.74566  0.60931  0.27054  1.0000
  C   C302      1.0  0.74573  0.63951  0.27237  1.0000
  H   H145      1.0  0.74729  0.65091  0.21256  1.0000
  H   H146      1.0  0.74724  0.60023  0.20930  1.0000
  O   O91       1.0  0.75959  0.60091  0.00505  1.0000
  C   C303      1.0  0.75973  0.66194  0.00464  1.0000
  O   O92       1.0  0.78044  0.69124  0.00806  1.0000
  O   O93       1.0  0.73354  0.65484  0.04296  1.0000
  H   H147      1.0  0.71565  0.63497  0.04330  1.0000
  C   C304      1.0  0.89903  0.63818  0.27002  1.0000
  C   C305      1.0  0.86890  0.60799  0.27209  1.0000
  H   H148      1.0  0.85732  0.59830  0.21237  1.0000
  H   H149      1.0  0.90802  0.64887  0.20874  1.0000
  O   O94       1.0  0.90822  0.66039  0.00460  1.0000
  C   C306      1.0  0.84720  0.59957  0.00480  1.0000
  O   O95       1.0  0.81804  0.59160  0.00765  1.0000
  O   O96       1.0  0.85386  0.58012  0.04260  1.0000
  H   H150      1.0  0.87360  0.58180  0.04273  1.0000
  C   C307      1.0  0.96815  0.76031  0.33616  1.0000
  C   C308      1.0  0.93353  0.74354  0.34801  1.0000
  C   C309      1.0  0.91699  0.70907  0.35651  1.0000
  H   H151      1.0  0.97913  0.78513  0.34351  1.0000
  H   H152      1.0  0.89192  0.69659  0.36722  1.0000
  C   C310      1.0  0.59331  0.79779  0.35729  1.0000
  C   C311      1.0  0.57680  0.76332  0.34863  1.0000
  C   C312      1.0  0.54222  0.74654  0.33619  1.0000
  H   H153      1.0  0.61836  0.81027  0.36840  1.0000
  H   H154      1.0  0.53124  0.72172  0.34347  1.0000
  C   C313      1.0  0.74822  0.70945  0.33600  1.0000
  C   C314      1.0  0.76499  0.69166  0.34875  1.0000
  C   C315      1.0  0.79945  0.70963  0.35776  1.0000
  H   H155      1.0  0.72339  0.69561  0.34312  1.0000
  H   H156      1.0  0.81191  0.69705  0.36895  1.0000
  C   C316      1.0  0.71084  0.79722  0.35738  1.0000
  C   C317      1.0  0.74530  0.81516  0.34843  1.0000
  C   C318      1.0  0.76206  0.79732  0.33616  1.0000
  H   H157      1.0  0.69838  0.80981  0.36843  1.0000
  H   H158      1.0  0.78689  0.81116  0.34313  1.0000
  C   C319      1.0  0.79912  0.54046  0.33656  1.0000
  C   C320      1.0  0.81695  0.57506  0.34868  1.0000
  C   C321      1.0  0.79900  0.59157  0.35757  1.0000
  H   H159      1.0  0.81297  0.52948  0.34375  1.0000
  H   H160      1.0  0.81159  0.61663  0.36844  1.0000
  C   C322      1.0  0.71127  0.91518  0.35542  1.0000
  C   C323      1.0  0.69340  0.93179  0.34744  1.0000
  C   C324      1.0  0.71128  0.96644  0.33629  1.0000
  H   H161      1.0  0.69866  0.89011  0.36614  1.0000
  H   H162      1.0  0.69751  0.97746  0.34435  1.0000
  C   C325      1.0  0.59614  0.74774  0.35325  1.0000
  C   C326      1.0  0.61357  0.75030  0.43336  1.0000
  C   C327      1.0  0.64394  0.75017  0.43310  1.0000
  C   C328      1.0  0.65793  0.74797  0.35008  1.0000
  N   N37       1.0  0.65920  0.75341  0.51425  1.0000
  C   C329      1.0  0.64638  0.75621  0.59365  1.0000
  C   C330      1.0  0.61661  0.75689  0.59321  1.0000
  N   N38       1.0  0.60162  0.75383  0.51315  1.0000
  H   H163      1.0  0.67963  0.75269  0.51692  1.0000
  C   C331      1.0  0.76091  0.85008  0.35318  1.0000
  C   C332      1.0  0.75849  0.86515  0.43301  1.0000
  C   C333      1.0  0.75858  0.89563  0.43232  1.0000
  C   C334      1.0  0.76059  0.91162  0.34910  1.0000
  N   N39       1.0  0.75541  0.90780  0.51330  1.0000
  C   C335      1.0  0.75271  0.89234  0.59292  1.0000
  C   C336      1.0  0.75208  0.86191  0.59291  1.0000
  N   N40       1.0  0.75507  0.84983  0.51300  1.0000
  H   H164      1.0  0.75607  0.92892  0.51566  1.0000
  C   C337      1.0  0.65849  0.91255  0.35269  1.0000
  C   C338      1.0  0.64356  0.89527  0.43287  1.0000
  C   C339      1.0  0.61309  0.86487  0.43281  1.0000
  C   C340      1.0  0.59691  0.85066  0.34996  1.0000
  N   N41       1.0  0.60109  0.84971  0.51407  1.0000
  C   C341      1.0  0.61671  0.86264  0.59340  1.0000
  C   C342      1.0  0.64712  0.89245  0.59277  1.0000
  N   N42       1.0  0.65906  0.90734  0.51258  1.0000
  H   H165      1.0  0.57999  0.82923  0.51685  1.0000
  C   C343      1.0  0.91423  0.75916  0.35279  1.0000
  C   C344      1.0  0.89690  0.75666  0.43305  1.0000
  C   C345      1.0  0.86651  0.75675  0.43299  1.0000
  C   C346      1.0  0.85233  0.75886  0.35020  1.0000
  N   N43       1.0  0.85133  0.75354  0.51425  1.0000
  C   C347      1.0  0.86424  0.75080  0.59357  1.0000
  C   C348      1.0  0.89403  0.75016  0.59293  1.0000
  N   N44       1.0  0.90894  0.75318  0.51276  1.0000
  H   H166      1.0  0.83088  0.75422  0.51706  1.0000
  C   C349      1.0  0.74941  0.65673  0.35351  1.0000
  C   C350      1.0  0.75200  0.64188  0.43358  1.0000
  C   C351      1.0  0.75192  0.61140  0.43320  1.0000
  C   C352      1.0  0.74976  0.59522  0.35014  1.0000
  N   N45       1.0  0.75517  0.59937  0.51433  1.0000
  C   C353      1.0  0.75794  0.61496  0.59378  1.0000
  C   C354      1.0  0.75858  0.64539  0.59341  1.0000
  N   N46       1.0  0.75551  0.65734  0.51339  1.0000
  H   H167      1.0  0.75446  0.57823  0.51697  1.0000
  C   C355      1.0  0.85186  0.59436  0.35350  1.0000
  C   C356      1.0  0.86691  0.61180  0.43339  1.0000
  C   C357      1.0  0.89741  0.64219  0.43282  1.0000
  C   C358      1.0  0.91342  0.65620  0.34967  1.0000
  N   N47       1.0  0.90956  0.65747  0.51386  1.0000
  C   C359      1.0  0.89407  0.64467  0.59343  1.0000
  C   C360      1.0  0.86363  0.61489  0.59331  1.0000
  N   N48       1.0  0.85156  0.59987  0.51333  1.0000
  H   H168      1.0  0.93070  0.67792  0.51631  1.0000
