data_image0
_chemical_formula_structural       C3NC2NOHCOCH2C3NC2NOHCOCH2C3NC2NOHCOCH2C3NC2NOHCOCH2C3NC2NOHCOCH2C3NC2NOHCOCH2C3H2O2HCH2C3H2O2HCH2C3H2O2HCH2C3H2O2HCH2C3H2O2HCH2C3H2O2HCH2C3NC2NHCH2C3NC2NHCH2C3NC2NHCH2C3NC2NHCH2C3NC2NHCH2C3NC2NHCH2CNCNCN2HNHNHCNCNCN2HNHNHCNCNCN2HNHNHCNCNCN2HNHNHCNCNCN2HNHNHCNCNCN2HNHNHCNCNCN2HNHNHCNCNCN2HNHNHCNCNCN2HNHNHCNCNCN2HNHNHCNCNCN2HNHNHCNCNCN2HNHNHC3H2OHCH2C3H2OHCH2C3H2OHCH2C3H2OHCH2C3H2OHCH2C3H2OHCH2C3NC2NHCOCH2C3NC2NHCOCH2C3NC2NHCOCH2C3NC2NHCOCH2C3NC2NHCOCH2C3NC2NHCOCH2C3H2OCO2HCH2C3H2OCO2HCH2C3H2OCO2HCH2C3H2OCO2HCH2C3H2OCO2HCH2C3H2OCO2HCH2
_chemical_formula_sum              "C234 N108 O54 H180"
_cell_length_a       58.6457
_cell_length_b       58.6456
_cell_length_c       15.0058
_cell_angle_alpha    90
_cell_angle_beta     90
_cell_angle_gamma    120

_space_group_name_H-M_alt    "P 1"
_space_group_IT_number       1

loop_
  _space_group_symop_operation_xyz
  'x, y, z'

loop_
  _atom_site_type_symbol
  _atom_site_label
  _atom_site_symmetry_multiplicity
  _atom_site_fract_x
  _atom_site_fract_y
  _atom_site_fract_z
  _atom_site_occupancy
  C   C1        1.0  0.20339  0.44773  0.33692  1.0000
  C   C2        1.0  0.21623  0.44913  0.25523  1.0000
  C   C3        1.0  0.23875  0.44593  0.25172  1.0000
  N   N1        1.0  0.24984  0.44766  0.16963  1.0000
  C   C4        1.0  0.24027  0.45198  0.09275  1.0000
  C   C5        1.0  0.21797  0.45512  0.09615  1.0000
  N   N2        1.0  0.20713  0.45351  0.17744  1.0000
  O   O1        1.0  0.25199  0.45261  0.01421  1.0000
  H   H1        1.0  0.26516  0.44550  0.16394  1.0000
  C   C6        1.0  0.20680  0.45923  0.02068  1.0000
  O   O2        1.0  0.18290  0.44971  0.01811  1.0000
  C   C7        1.0  0.18014  0.45170  0.33794  1.0000
  H   H2        1.0  0.16530  0.43657  0.29438  1.0000
  H   H3        1.0  0.18614  0.47097  0.30837  1.0000
  C   C8        1.0  0.56444  0.76821  0.33698  1.0000
  C   C9        1.0  0.56303  0.77964  0.25527  1.0000
  C   C10       1.0  0.56624  0.80536  0.25171  1.0000
  N   N3        1.0  0.56450  0.81471  0.16959  1.0000
  C   C11       1.0  0.56017  0.80080  0.09274  1.0000
  C   C12       1.0  0.55703  0.77536  0.09620  1.0000
  N   N4        1.0  0.55864  0.76614  0.17750  1.0000
  O   O3        1.0  0.55954  0.81188  0.01418  1.0000
  H   H4        1.0  0.56666  0.83219  0.16388  1.0000
  C   C13       1.0  0.55291  0.76006  0.02076  1.0000
  O   O4        1.0  0.56242  0.74568  0.01822  1.0000
  C   C14       1.0  0.56046  0.74100  0.33806  1.0000
  H   H5        1.0  0.57558  0.74126  0.29447  1.0000
  H   H6        1.0  0.54118  0.72771  0.30856  1.0000
  C   C15       1.0  0.24395  0.80878  0.33690  1.0000
  C   C16       1.0  0.23251  0.79595  0.25521  1.0000
  C   C17       1.0  0.20679  0.77343  0.25170  1.0000
  N   N5        1.0  0.19742  0.76233  0.16959  1.0000
  C   C18       1.0  0.21133  0.77191  0.09272  1.0000
  C   C19       1.0  0.23677  0.79421  0.09613  1.0000
  N   N6        1.0  0.24599  0.80504  0.17742  1.0000
  O   O5        1.0  0.20023  0.76019  0.01417  1.0000
  H   H7        1.0  0.17995  0.74702  0.16391  1.0000
  C   C20       1.0  0.25205  0.80538  0.02067  1.0000
  O   O6        1.0  0.26643  0.82927  0.01810  1.0000
  C   C21       1.0  0.27116  0.83202  0.33794  1.0000
  H   H8        1.0  0.27088  0.84687  0.29438  1.0000
  H   H9        1.0  0.28444  0.82603  0.30835  1.0000
  C   C22       1.0  0.80447  0.56875  0.33698  1.0000
  C   C23       1.0  0.79164  0.56735  0.25527  1.0000
  C   C24       1.0  0.76912  0.57056  0.25171  1.0000
  N   N7        1.0  0.75804  0.56882  0.16959  1.0000
  C   C25       1.0  0.76762  0.56449  0.09274  1.0000
  C   C26       1.0  0.78992  0.56134  0.09620  1.0000
  N   N8        1.0  0.80074  0.56296  0.17750  1.0000
  O   O7        1.0  0.75591  0.56386  0.01417  1.0000
  H   H10       1.0  0.74273  0.57099  0.16388  1.0000
  C   C27       1.0  0.80109  0.55722  0.02075  1.0000
  O   O8        1.0  0.82498  0.56674  0.01822  1.0000
  C   C28       1.0  0.82771  0.56477  0.33806  1.0000
  H   H11       1.0  0.84256  0.57989  0.29447  1.0000
  H   H12       1.0  0.82171  0.54549  0.30855  1.0000
  C   C29       1.0  0.44342  0.24827  0.33692  1.0000
  C   C30       1.0  0.44481  0.23683  0.25523  1.0000
  C   C31       1.0  0.44161  0.21111  0.25172  1.0000
  N   N9        1.0  0.44334  0.20174  0.16963  1.0000
  C   C32       1.0  0.44766  0.21564  0.09275  1.0000
  C   C33       1.0  0.45080  0.24108  0.09615  1.0000
  N   N10       1.0  0.44919  0.25031  0.17744  1.0000
  O   O9        1.0  0.44829  0.20455  0.01421  1.0000
  H   H13       1.0  0.44118  0.18427  0.16395  1.0000
  C   C34       1.0  0.45492  0.25637  0.02068  1.0000
  O   O10       1.0  0.44540  0.27074  0.01811  1.0000
  C   C35       1.0  0.44738  0.27548  0.33794  1.0000
  H   H14       1.0  0.43226  0.27520  0.29439  1.0000
  H   H15       1.0  0.46666  0.28876  0.30835  1.0000
  C   C36       1.0  0.76389  0.20770  0.33700  1.0000
  C   C37       1.0  0.77532  0.22053  0.25529  1.0000
  C   C38       1.0  0.80104  0.24305  0.25174  1.0000
  N   N11       1.0  0.81039  0.25414  0.16963  1.0000
  C   C39       1.0  0.79648  0.24456  0.09278  1.0000
  C   C40       1.0  0.77104  0.22226  0.09622  1.0000
  N   N12       1.0  0.76183  0.21143  0.17752  1.0000
  O   O11       1.0  0.80756  0.25627  0.01421  1.0000
  H   H16       1.0  0.82787  0.26945  0.16392  1.0000
  C   C41       1.0  0.75575  0.21108  0.02077  1.0000
  O   O12       1.0  0.74138  0.18719  0.01823  1.0000
  C   C42       1.0  0.73667  0.18446  0.33807  1.0000
  H   H17       1.0  0.73694  0.16961  0.29447  1.0000
  H   H18       1.0  0.72339  0.19045  0.30855  1.0000
  C   C43       1.0  0.14175  0.54493  0.34691  1.0000
  C   C44       1.0  0.14102  0.55598  0.26392  1.0000
  C   C45       1.0  0.13878  0.57868  0.25885  1.0000
  H   H19       1.0  0.13865  0.58595  0.19719  1.0000
  H   H20       1.0  0.14221  0.54761  0.20556  1.0000
  O   O13       1.0  0.14143  0.55094  0.00020  1.0000
  O   O14       1.0  0.11332  0.58388  0.03428  1.0000
  H   H21       1.0  0.10247  0.56664  0.03694  1.0000
  C   C46       1.0  0.14371  0.52047  0.34750  1.0000
  H   H22       1.0  0.16239  0.52537  0.37922  1.0000
  H   H23       1.0  0.14425  0.51379  0.27977  1.0000
  C   C47       1.0  0.46726  0.60940  0.34688  1.0000
  C   C48       1.0  0.45621  0.59761  0.26390  1.0000
  C   C49       1.0  0.43351  0.57269  0.25883  1.0000
  H   H24       1.0  0.42623  0.56528  0.19717  1.0000
  H   H25       1.0  0.46458  0.60718  0.20553  1.0000
  O   O15       1.0  0.46125  0.60308  0.00017  1.0000
  O   O16       1.0  0.42829  0.54202  0.03426  1.0000
  H   H26       1.0  0.44553  0.54840  0.03691  1.0000
  C   C50       1.0  0.49172  0.63581  0.34747  1.0000
  H   H27       1.0  0.48683  0.64960  0.37918  1.0000
  H   H28       1.0  0.49841  0.64303  0.27974  1.0000
  C   C51       1.0  0.40279  0.87042  0.34691  1.0000
  C   C52       1.0  0.41458  0.87115  0.26393  1.0000
  C   C53       1.0  0.43950  0.87339  0.25885  1.0000
  H   H29       1.0  0.44691  0.87352  0.19718  1.0000
  H   H30       1.0  0.40501  0.86996  0.20557  1.0000
  O   O17       1.0  0.40913  0.87075  0.00021  1.0000
  O   O18       1.0  0.47018  0.89885  0.03428  1.0000
  H   H31       1.0  0.46380  0.90971  0.03694  1.0000
  C   C54       1.0  0.37638  0.86846  0.34751  1.0000
  H   H32       1.0  0.36259  0.84978  0.37923  1.0000
  H   H33       1.0  0.36915  0.86792  0.27978  1.0000
  C   C55       1.0  0.86611  0.47157  0.34687  1.0000
  C   C56       1.0  0.86684  0.46052  0.26389  1.0000
  C   C57       1.0  0.86907  0.43782  0.25882  1.0000
  H   H34       1.0  0.86920  0.43055  0.19716  1.0000
  H   H35       1.0  0.86565  0.46890  0.20553  1.0000
  O   O19       1.0  0.86642  0.46556  0.00017  1.0000
  O   O20       1.0  0.89451  0.43260  0.03425  1.0000
  H   H36       1.0  0.90538  0.44984  0.03691  1.0000
  C   C58       1.0  0.86416  0.49603  0.34747  1.0000
  H   H37       1.0  0.84547  0.49114  0.37918  1.0000
  H   H38       1.0  0.86362  0.50272  0.27974  1.0000
  C   C59       1.0  0.54062  0.40711  0.34690  1.0000
  C   C60       1.0  0.55167  0.41890  0.26392  1.0000
  C   C61       1.0  0.57436  0.44383  0.25884  1.0000
  H   H39       1.0  0.58164  0.45123  0.19718  1.0000
  H   H40       1.0  0.54329  0.40933  0.20556  1.0000
  O   O21       1.0  0.54663  0.41345  0.00019  1.0000
  O   O22       1.0  0.57958  0.47450  0.03427  1.0000
  H   H41       1.0  0.56234  0.46812  0.03693  1.0000
  C   C62       1.0  0.51616  0.38070  0.34750  1.0000
  H   H42       1.0  0.52106  0.36691  0.37922  1.0000
  H   H43       1.0  0.50948  0.37348  0.27977  1.0000
  C   C63       1.0  0.60508  0.14606  0.34687  1.0000
  C   C64       1.0  0.59329  0.14533  0.26389  1.0000
  C   C65       1.0  0.56837  0.14310  0.25882  1.0000
  H   H44       1.0  0.56096  0.14297  0.19716  1.0000
  H   H45       1.0  0.60285  0.14652  0.20553  1.0000
  O   O23       1.0  0.59876  0.14575  0.00017  1.0000
  O   O24       1.0  0.53770  0.11766  0.03425  1.0000
  H   H46       1.0  0.54408  0.10680  0.03691  1.0000
  C   C66       1.0  0.63149  0.14801  0.34745  1.0000
  H   H47       1.0  0.64528  0.16670  0.37917  1.0000
  H   H48       1.0  0.63871  0.14855  0.27973  1.0000
  C   C67       1.0  0.03302  0.39314  0.29901  1.0000
  C   C68       1.0  0.01899  0.39306  0.22186  1.0000
  C   C69       1.0  0.99277  0.38856  0.22716  1.0000
  N   N13       1.0  0.98136  0.39026  0.14938  1.0000
  C   C70       1.0  0.99344  0.39505  0.06857  1.0000
  C   C71       1.0  0.01903  0.39873  0.06344  1.0000
  N   N14       1.0  0.03063  0.39779  0.14035  1.0000
  H   H49       1.0  0.96383  0.38811  0.15002  1.0000
  C   C72       1.0  0.06119  0.40007  0.29233  1.0000
  H   H50       1.0  0.07146  0.41797  0.25193  1.0000
  H   H51       1.0  0.06205  0.38444  0.25526  1.0000
  C   C73       1.0  0.61905  0.65246  0.29905  1.0000
  C   C74       1.0  0.61912  0.63851  0.22189  1.0000
  C   C75       1.0  0.62362  0.61679  0.22718  1.0000
  N   N15       1.0  0.62191  0.60368  0.14940  1.0000
  C   C76       1.0  0.61711  0.61097  0.06859  1.0000
  C   C77       1.0  0.61344  0.63288  0.06348  1.0000
  N   N16       1.0  0.61439  0.64542  0.14039  1.0000
  H   H52       1.0  0.62406  0.58830  0.15004  1.0000
  C   C78       1.0  0.61212  0.67371  0.29238  1.0000
  H   H53       1.0  0.59422  0.66608  0.25198  1.0000
  H   H54       1.0  0.62775  0.69020  0.25533  1.0000
  C   C79       1.0  0.35973  0.97915  0.29901  1.0000
  C   C80       1.0  0.37368  0.99317  0.22187  1.0000
  C   C81       1.0  0.39540  0.01939  0.22717  1.0000
  N   N17       1.0  0.40851  0.03080  0.14939  1.0000
  C   C82       1.0  0.40122  0.01872  0.06857  1.0000
  C   C83       1.0  0.37931  0.99314  0.06344  1.0000
  N   N18       1.0  0.36677  0.98154  0.14035  1.0000
  H   H55       1.0  0.42389  0.04833  0.15003  1.0000
  C   C84       1.0  0.33849  0.95097  0.29233  1.0000
  H   H56       1.0  0.34612  0.94071  0.25193  1.0000
  H   H57       1.0  0.32200  0.95011  0.25526  1.0000
  C   C85       1.0  0.97482  0.62335  0.29904  1.0000
  C   C86       1.0  0.98884  0.62343  0.22189  1.0000
  C   C87       1.0  0.01506  0.62792  0.22718  1.0000
  N   N19       1.0  0.02647  0.62622  0.14940  1.0000
  C   C88       1.0  0.01438  0.62142  0.06859  1.0000
  C   C89       1.0  0.98880  0.61775  0.06348  1.0000
  N   N20       1.0  0.97720  0.61870  0.14039  1.0000
  H   H58       1.0  0.04399  0.62836  0.15004  1.0000
  C   C90       1.0  0.94665  0.61643  0.29237  1.0000
  H   H59       1.0  0.93638  0.59854  0.25196  1.0000
  H   H60       1.0  0.94579  0.63207  0.25533  1.0000
  C   C91       1.0  0.38884  0.36406  0.29900  1.0000
  C   C92       1.0  0.38876  0.37800  0.22185  1.0000
  C   C93       1.0  0.38426  0.39972  0.22715  1.0000
  N   N21       1.0  0.38595  0.41283  0.14938  1.0000
  C   C94       1.0  0.39074  0.40554  0.06856  1.0000
  C   C95       1.0  0.39442  0.38363  0.06344  1.0000
  N   N22       1.0  0.39348  0.37109  0.14035  1.0000
  H   H61       1.0  0.38381  0.42821  0.15002  1.0000
  C   C96       1.0  0.39576  0.34281  0.29231  1.0000
  H   H62       1.0  0.41366  0.35044  0.25192  1.0000
  H   H63       1.0  0.38013  0.32632  0.25525  1.0000
  C   C97       1.0  0.64814  0.03734  0.29904  1.0000
  C   C98       1.0  0.63419  0.02332  0.22189  1.0000
  C   C99       1.0  0.61247  0.99710  0.22717  1.0000
  N   N23       1.0  0.59936  0.98569  0.14940  1.0000
  C   C100      1.0  0.60665  0.99778  0.06859  1.0000
  C   C101      1.0  0.62856  0.02337  0.06347  1.0000
  N   N24       1.0  0.64110  0.03496  0.14038  1.0000
  H   H64       1.0  0.58398  0.96817  0.15004  1.0000
  C   C102      1.0  0.66939  0.06551  0.29237  1.0000
  H   H65       1.0  0.66176  0.07579  0.25196  1.0000
  H   H66       1.0  0.68588  0.06637  0.25531  1.0000
  C   C103      1.0  0.09863  0.42779  0.39154  1.0000
  N   N25       1.0  0.12151  0.42790  0.40660  1.0000
  C   C104      1.0  0.14436  0.45085  0.41890  1.0000
  N   N26       1.0  0.14427  0.47396  0.41484  1.0000
  C   C105      1.0  0.12169  0.47444  0.39905  1.0000
  N   N27       1.0  0.09896  0.45111  0.38838  1.0000
  N   N28       1.0  0.16791  0.45013  0.42636  1.0000
  H   H67       1.0  0.18082  0.46554  0.46574  1.0000
  N   N29       1.0  0.12162  0.49856  0.39702  1.0000
  H   H68       1.0  0.10403  0.49543  0.37134  1.0000
  N   N30       1.0  0.07461  0.40404  0.38020  1.0000
  H   H69       1.0  0.07668  0.38806  0.39499  1.0000
  C   C106      1.0  0.58440  0.68342  0.39163  1.0000
  N   N31       1.0  0.58428  0.70618  0.40674  1.0000
  C   C107      1.0  0.56133  0.70607  0.41908  1.0000
  N   N32       1.0  0.53823  0.68288  0.41494  1.0000
  C   C108      1.0  0.53775  0.65982  0.39910  1.0000
  N   N33       1.0  0.56108  0.66042  0.38842  1.0000
  N   N34       1.0  0.56206  0.73035  0.42648  1.0000
  H   H70       1.0  0.54665  0.72785  0.46592  1.0000
  N   N35       1.0  0.51363  0.63563  0.39700  1.0000
  H   H71       1.0  0.51676  0.62117  0.37129  1.0000
  N   N36       1.0  0.60815  0.68315  0.38027  1.0000
  H   H72       1.0  0.62413  0.70120  0.39506  1.0000
  C   C109      1.0  0.32877  0.91353  0.39154  1.0000
  N   N37       1.0  0.30600  0.89065  0.40660  1.0000
  C   C110      1.0  0.30611  0.86781  0.41890  1.0000
  N   N38       1.0  0.32930  0.86790  0.41485  1.0000
  C   C111      1.0  0.35236  0.89048  0.39906  1.0000
  N   N39       1.0  0.35176  0.91321  0.38839  1.0000
  N   N40       1.0  0.28183  0.84426  0.42635  1.0000
  H   H73       1.0  0.28434  0.83134  0.46573  1.0000
  N   N41       1.0  0.37655  0.89055  0.39703  1.0000
  H   H74       1.0  0.39102  0.90815  0.37135  1.0000
  N   N42       1.0  0.32904  0.93756  0.38020  1.0000
  H   H75       1.0  0.31099  0.93548  0.39498  1.0000
  C   C112      1.0  0.90922  0.58871  0.39162  1.0000
  N   N43       1.0  0.88634  0.58859  0.40674  1.0000
  C   C113      1.0  0.86349  0.56563  0.41908  1.0000
  N   N44       1.0  0.86359  0.54253  0.41494  1.0000
  C   C114      1.0  0.88618  0.54206  0.39910  1.0000
  N   N45       1.0  0.90890  0.56539  0.38842  1.0000
  N   N46       1.0  0.83995  0.56637  0.42648  1.0000
  H   H76       1.0  0.82704  0.55096  0.46591  1.0000
  N   N47       1.0  0.88625  0.51794  0.39700  1.0000
  H   H77       1.0  0.90384  0.52108  0.37129  1.0000
  N   N48       1.0  0.93324  0.61246  0.38025  1.0000
  H   H78       1.0  0.93116  0.62844  0.39505  1.0000
  C   C115      1.0  0.42348  0.33309  0.39154  1.0000
  N   N49       1.0  0.42360  0.31032  0.40659  1.0000
  C   C116      1.0  0.44655  0.31043  0.41890  1.0000
  N   N50       1.0  0.46965  0.33362  0.41485  1.0000
  C   C117      1.0  0.47013  0.35668  0.39905  1.0000
  N   N51       1.0  0.44680  0.35608  0.38838  1.0000
  N   N52       1.0  0.44582  0.28615  0.42636  1.0000
  H   H79       1.0  0.46124  0.28866  0.46573  1.0000
  N   N53       1.0  0.49425  0.38088  0.39703  1.0000
  H   H80       1.0  0.49112  0.39534  0.37134  1.0000
  N   N54       1.0  0.39973  0.33336  0.38019  1.0000
  H   H81       1.0  0.38375  0.31531  0.39497  1.0000
  C   C118      1.0  0.67910  0.10294  0.39162  1.0000
  N   N55       1.0  0.70186  0.12583  0.40673  1.0000
  C   C119      1.0  0.70175  0.14867  0.41908  1.0000
  N   N56       1.0  0.67855  0.14857  0.41493  1.0000
  C   C120      1.0  0.65549  0.12599  0.39909  1.0000
  N   N57       1.0  0.65610  0.10327  0.38841  1.0000
  N   N58       1.0  0.72603  0.17222  0.42649  1.0000
  H   H82       1.0  0.72353  0.18513  0.46592  1.0000
  N   N59       1.0  0.63131  0.12592  0.39699  1.0000
  H   H83       1.0  0.61685  0.10833  0.37128  1.0000
  N   N60       1.0  0.67883  0.07893  0.38025  1.0000
  H   H84       1.0  0.69688  0.08101  0.39504  1.0000
  C   C121      1.0  0.44384  0.10479  0.27120  1.0000
  N   N61       1.0  0.44135  0.12597  0.29267  1.0000
  C   C122      1.0  0.46260  0.15071  0.29431  1.0000
  N   N62       1.0  0.48668  0.15400  0.27470  1.0000
  C   C123      1.0  0.48972  0.13325  0.25239  1.0000
  N   N63       1.0  0.46814  0.10880  0.25108  1.0000
  N   N64       1.0  0.46101  0.17335  0.31516  1.0000
  H   H85       1.0  0.47312  0.18237  0.36884  1.0000
  N   N65       1.0  0.51528  0.13676  0.24411  1.0000
  H   H86       1.0  0.51395  0.12115  0.20863  1.0000
  N   N66       1.0  0.42187  0.07901  0.26898  1.0000
  H   H87       1.0  0.40526  0.07924  0.28947  1.0000
  C   C124      1.0  0.66058  0.56835  0.27116  1.0000
  N   N67       1.0  0.68424  0.57083  0.29260  1.0000
  C   C125      1.0  0.68773  0.54958  0.29423  1.0000
  N   N68       1.0  0.66694  0.52550  0.27464  1.0000
  C   C126      1.0  0.64316  0.52248  0.25237  1.0000
  N   N69       1.0  0.64028  0.54405  0.25105  1.0000
  N   N70       1.0  0.71196  0.55117  0.31507  1.0000
  H   H88       1.0  0.70888  0.53907  0.36876  1.0000
  N   N71       1.0  0.62110  0.49692  0.24410  1.0000
  H   H89       1.0  0.60683  0.49824  0.20861  1.0000
  N   N72       1.0  0.65677  0.59032  0.26895  1.0000
  H   H90       1.0  0.67361  0.60693  0.28942  1.0000
  C   C127      1.0  0.90737  0.35159  0.27118  1.0000
  N   N73       1.0  0.88619  0.32794  0.29263  1.0000
  C   C128      1.0  0.86144  0.32444  0.29427  1.0000
  N   N74       1.0  0.85816  0.34524  0.27467  1.0000
  C   C129      1.0  0.87891  0.36902  0.25238  1.0000
  N   N75       1.0  0.90336  0.37190  0.25106  1.0000
  N   N76       1.0  0.83881  0.30022  0.31512  1.0000
  H   H91       1.0  0.82979  0.30329  0.36880  1.0000
  N   N77       1.0  0.87541  0.39108  0.24409  1.0000
  H   H92       1.0  0.89101  0.40535  0.20862  1.0000
  N   N78       1.0  0.93315  0.35541  0.26897  1.0000
  H   H93       1.0  0.93292  0.33857  0.28945  1.0000
  C   C130      1.0  0.56403  0.91170  0.27116  1.0000
  N   N79       1.0  0.56651  0.89052  0.29260  1.0000
  C   C131      1.0  0.54526  0.86577  0.29424  1.0000
  N   N80       1.0  0.52118  0.86249  0.27465  1.0000
  C   C132      1.0  0.51816  0.88324  0.25238  1.0000
  N   N81       1.0  0.53973  0.90770  0.25106  1.0000
  N   N82       1.0  0.54685  0.84314  0.31508  1.0000
  H   H94       1.0  0.53475  0.83411  0.36877  1.0000
  N   N83       1.0  0.49259  0.87974  0.24411  1.0000
  H   H95       1.0  0.49392  0.89533  0.20861  1.0000
  N   N84       1.0  0.58600  0.93748  0.26895  1.0000
  H   H96       1.0  0.60261  0.93724  0.28942  1.0000
  C   C133      1.0  0.34729  0.44816  0.27120  1.0000
  N   N85       1.0  0.32364  0.44568  0.29267  1.0000
  C   C134      1.0  0.32014  0.46692  0.29431  1.0000
  N   N86       1.0  0.34093  0.49100  0.27470  1.0000
  C   C135      1.0  0.36472  0.49404  0.25240  1.0000
  N   N87       1.0  0.36759  0.47246  0.25108  1.0000
  N   N88       1.0  0.29591  0.46533  0.31516  1.0000
  H   H97       1.0  0.29899  0.47743  0.36884  1.0000
  N   N89       1.0  0.38677  0.51960  0.24411  1.0000
  H   H98       1.0  0.40104  0.51827  0.20864  1.0000
  N   N90       1.0  0.35111  0.42619  0.26898  1.0000
  H   H99       1.0  0.33427  0.40958  0.28947  1.0000
  C   C136      1.0  0.10047  0.66489  0.27118  1.0000
  N   N91       1.0  0.12164  0.68854  0.29264  1.0000
  C   C137      1.0  0.14639  0.69204  0.29428  1.0000
  N   N92       1.0  0.14968  0.67125  0.27468  1.0000
  C   C138      1.0  0.12892  0.64747  0.25240  1.0000
  N   N93       1.0  0.10447  0.64458  0.25107  1.0000
  N   N94       1.0  0.16902  0.71627  0.31512  1.0000
  H   H100      1.0  0.17805  0.71319  0.36881  1.0000
  N   N95       1.0  0.13243  0.62541  0.24412  1.0000
  H   H101      1.0  0.11683  0.61114  0.20863  1.0000
  N   N96       1.0  0.07468  0.66107  0.26897  1.0000
  H   H102      1.0  0.07492  0.67791  0.28944  1.0000
  C   C139      1.0  0.24849  0.44102  0.33223  1.0000
  C   C140      1.0  0.23525  0.43904  0.41303  1.0000
  C   C141      1.0  0.21314  0.44229  0.41533  1.0000
  H   H103      1.0  0.20439  0.44075  0.47562  1.0000
  H   H104      1.0  0.24190  0.43566  0.47186  1.0000
  O   O25       1.0  0.21929  0.47832  0.63743  1.0000
  H   H105      1.0  0.23659  0.48883  0.63799  1.0000
  C   C142      1.0  0.27285  0.43904  0.33482  1.0000
  H   H106      1.0  0.27090  0.42435  0.28597  1.0000
  H   H107      1.0  0.27571  0.43229  0.39976  1.0000
  C   C143      1.0  0.57116  0.82003  0.33219  1.0000
  C   C144      1.0  0.57314  0.80877  0.41301  1.0000
  C   C145      1.0  0.56989  0.78341  0.41536  1.0000
  H   H108      1.0  0.57143  0.77621  0.47567  1.0000
  H   H109      1.0  0.57653  0.81881  0.47182  1.0000
  O   O26       1.0  0.53382  0.75346  0.63750  1.0000
  H   H110      1.0  0.52331  0.76026  0.63805  1.0000
  C   C146      1.0  0.57314  0.84637  0.33473  1.0000
  H   H111      1.0  0.58783  0.85910  0.28585  1.0000
  H   H112      1.0  0.57990  0.85599  0.39965  1.0000
  C   C147      1.0  0.19213  0.76368  0.33220  1.0000
  C   C148      1.0  0.20340  0.77693  0.41299  1.0000
  C   C149      1.0  0.22876  0.79903  0.41531  1.0000
  H   H113      1.0  0.23597  0.80778  0.47560  1.0000
  H   H114      1.0  0.19337  0.77028  0.47182  1.0000
  O   O27       1.0  0.25865  0.79289  0.63741  1.0000
  H   H115      1.0  0.25185  0.77558  0.63797  1.0000
  C   C150      1.0  0.16580  0.73933  0.33478  1.0000
  H   H116      1.0  0.15305  0.74128  0.28593  1.0000
  H   H117      1.0  0.15618  0.73647  0.39972  1.0000
  C   C151      1.0  0.75938  0.57548  0.33219  1.0000
  C   C152      1.0  0.77261  0.57746  0.41301  1.0000
  C   C153      1.0  0.79472  0.57420  0.41536  1.0000
  H   H118      1.0  0.80346  0.57574  0.47567  1.0000
  H   H119      1.0  0.76596  0.58084  0.47182  1.0000
  O   O28       1.0  0.78861  0.53813  0.63750  1.0000
  H   H120      1.0  0.77130  0.52763  0.63804  1.0000
  C   C154      1.0  0.73503  0.57746  0.33473  1.0000
  H   H121      1.0  0.73698  0.59215  0.28585  1.0000
  H   H122      1.0  0.73216  0.58422  0.39965  1.0000
  C   C155      1.0  0.43670  0.19645  0.33224  1.0000
  C   C156      1.0  0.43473  0.20772  0.41303  1.0000
  C   C157      1.0  0.43798  0.23308  0.41533  1.0000
  H   H123      1.0  0.43644  0.24029  0.47562  1.0000
  H   H124      1.0  0.43135  0.19770  0.47186  1.0000
  O   O29       1.0  0.47401  0.26296  0.63743  1.0000
  H   H125      1.0  0.48451  0.25617  0.63799  1.0000
  C   C158      1.0  0.43472  0.17012  0.33483  1.0000
  H   H126      1.0  0.42003  0.15738  0.28598  1.0000
  H   H127      1.0  0.42797  0.16050  0.39977  1.0000
  C   C159      1.0  0.81571  0.25280  0.33223  1.0000
  C   C160      1.0  0.80445  0.23956  0.41303  1.0000
  C   C161      1.0  0.77909  0.21745  0.41539  1.0000
  H   H128      1.0  0.77189  0.20871  0.47569  1.0000
  H   H129      1.0  0.81449  0.24621  0.47185  1.0000
  O   O30       1.0  0.74915  0.22357  0.63751  1.0000
  H   H130      1.0  0.75595  0.24087  0.63806  1.0000
  C   C162      1.0  0.84204  0.27715  0.33478  1.0000
  H   H131      1.0  0.85478  0.27520  0.28590  1.0000
  H   H132      1.0  0.85166  0.28002  0.39970  1.0000
  C   C163      1.0  0.13647  0.59092  0.33659  1.0000
  C   C164      1.0  0.13742  0.58008  0.42014  1.0000
  C   C165      1.0  0.14053  0.55753  0.42660  1.0000
  N   N97       1.0  0.14201  0.54907  0.51059  1.0000
  C   C166      1.0  0.13983  0.56057  0.58645  1.0000
  C   C167      1.0  0.13615  0.58249  0.57990  1.0000
  N   N98       1.0  0.13531  0.59119  0.49696  1.0000
  H   H133      1.0  0.14492  0.53428  0.51830  1.0000
  C   C168      1.0  0.13330  0.59498  0.65394  1.0000
  O   O31       1.0  0.14374  0.61897  0.65249  1.0000
  C   C169      1.0  0.13315  0.61456  0.33332  1.0000
  H   H134      1.0  0.14960  0.63011  0.37086  1.0000
  H   H135      1.0  0.11491  0.60950  0.36900  1.0000
  C   C170      1.0  0.42127  0.55814  0.33657  1.0000
  C   C171      1.0  0.43210  0.56993  0.42012  1.0000
  C   C172      1.0  0.45465  0.59558  0.42657  1.0000
  N   N99       1.0  0.46312  0.60552  0.51056  1.0000
  C   C173      1.0  0.45161  0.59184  0.58643  1.0000
  C   C174      1.0  0.42969  0.56625  0.57988  1.0000
  N   N100      1.0  0.42100  0.55671  0.49694  1.0000
  H   H136      1.0  0.47791  0.62323  0.51827  1.0000
  C   C175      1.0  0.41720  0.55091  0.65392  1.0000
  O   O32       1.0  0.39321  0.53736  0.65249  1.0000
  C   C176      1.0  0.39762  0.53118  0.33331  1.0000
  H   H137      1.0  0.38207  0.53208  0.37083  1.0000
  H   H138      1.0  0.40267  0.51799  0.36901  1.0000
  C   C177      1.0  0.45406  0.87570  0.33658  1.0000
  C   C178      1.0  0.44228  0.87475  0.42014  1.0000
  C   C179      1.0  0.41662  0.87164  0.42660  1.0000
  N   N101      1.0  0.40668  0.87017  0.51059  1.0000
  C   C180      1.0  0.42036  0.87235  0.58645  1.0000
  C   C181      1.0  0.44595  0.87602  0.57989  1.0000
  N   N102      1.0  0.45550  0.87687  0.49695  1.0000
  H   H139      1.0  0.38897  0.86725  0.51831  1.0000
  C   C182      1.0  0.46130  0.87888  0.65393  1.0000
  O   O33       1.0  0.47486  0.86844  0.65249  1.0000
  C   C183      1.0  0.48102  0.87902  0.33331  1.0000
  H   H140      1.0  0.48012  0.86257  0.37085  1.0000
  H   H141      1.0  0.49421  0.89727  0.36898  1.0000
  C   C184      1.0  0.87137  0.42558  0.33656  1.0000
  C   C185      1.0  0.87043  0.43641  0.42011  1.0000
  C   C186      1.0  0.86732  0.45897  0.42656  1.0000
  N   N103      1.0  0.86584  0.46743  0.51056  1.0000
  C   C187      1.0  0.86802  0.45593  0.58642  1.0000
  C   C188      1.0  0.87169  0.43400  0.57986  1.0000
  N   N104      1.0  0.87253  0.42530  0.49693  1.0000
  H   H142      1.0  0.86293  0.48222  0.51827  1.0000
  C   C189      1.0  0.87454  0.42151  0.65391  1.0000
  O   O34       1.0  0.86409  0.39752  0.65247  1.0000
  C   C190      1.0  0.87468  0.40193  0.33329  1.0000
  H   H143      1.0  0.85823  0.38639  0.37082  1.0000
  H   H144      1.0  0.89293  0.40698  0.36898  1.0000
  C   C191      1.0  0.58661  0.45838  0.33658  1.0000
  C   C192      1.0  0.57577  0.44660  0.42013  1.0000
  C   C193      1.0  0.55322  0.42094  0.42659  1.0000
  N   N105      1.0  0.54476  0.41100  0.51058  1.0000
  C   C194      1.0  0.55626  0.42468  0.58645  1.0000
  C   C195      1.0  0.57818  0.45027  0.57988  1.0000
  N   N106      1.0  0.58688  0.45982  0.49694  1.0000
  H   H145      1.0  0.52997  0.39330  0.51829  1.0000
  C   C196      1.0  0.59067  0.46562  0.65392  1.0000
  O   O35       1.0  0.61466  0.47918  0.65248  1.0000
  C   C197      1.0  0.61025  0.48534  0.33330  1.0000
  H   H146      1.0  0.62579  0.48444  0.37084  1.0000
  H   H147      1.0  0.60519  0.49853  0.36898  1.0000
  C   C198      1.0  0.55382  0.14080  0.33656  1.0000
  C   C199      1.0  0.56560  0.14175  0.42011  1.0000
  C   C200      1.0  0.59126  0.14485  0.42656  1.0000
  N   N107      1.0  0.60120  0.14633  0.51055  1.0000
  C   C201      1.0  0.58752  0.14415  0.58642  1.0000
  C   C202      1.0  0.56193  0.14048  0.57987  1.0000
  N   N108      1.0  0.55239  0.13964  0.49693  1.0000
  H   H148      1.0  0.61891  0.14924  0.51825  1.0000
  C   C203      1.0  0.54659  0.13763  0.65391  1.0000
  O   O36       1.0  0.53304  0.14808  0.65248  1.0000
  C   C204      1.0  0.52686  0.13749  0.33330  1.0000
  H   H149      1.0  0.52776  0.15393  0.37082  1.0000
  H   H150      1.0  0.51367  0.11924  0.36900  1.0000
  C   C205      1.0  0.97988  0.38273  0.31158  1.0000
  C   C206      1.0  0.99365  0.38193  0.38768  1.0000
  C   C207      1.0  0.01970  0.38726  0.38163  1.0000
  H   H151      1.0  0.02876  0.38672  0.43904  1.0000
  H   H152      1.0  0.98499  0.37795  0.44926  1.0000
  O   O37       1.0  0.98070  0.39602  0.66122  1.0000
  C   C208      1.0  0.03239  0.40324  0.65042  1.0000
  O   O38       1.0  0.04777  0.42625  0.63236  1.0000
  O   O39       1.0  0.03928  0.38763  0.62406  1.0000
  H   H153      1.0  0.03057  0.37046  0.63485  1.0000
  C   C209      1.0  0.95260  0.37802  0.32337  1.0000
  H   H154      1.0  0.95298  0.39613  0.30324  1.0000
  H   H155      1.0  0.94638  0.37450  0.39325  1.0000
  C   C210      1.0  0.62946  0.60973  0.31160  1.0000
  C   C211      1.0  0.63026  0.62430  0.38770  1.0000
  C   C212      1.0  0.62494  0.64503  0.38166  1.0000
  H   H156      1.0  0.62548  0.65463  0.43908  1.0000
  H   H157      1.0  0.63425  0.61963  0.44927  1.0000
  O   O40       1.0  0.61613  0.59726  0.66125  1.0000
  C   C213      1.0  0.60892  0.64173  0.65046  1.0000
  O   O41       1.0  0.58590  0.63408  0.63239  1.0000
  O   O42       1.0  0.62452  0.66424  0.62412  1.0000
  H   H158      1.0  0.64168  0.67270  0.63492  1.0000
  C   C214      1.0  0.63416  0.58716  0.32337  1.0000
  H   H159      1.0  0.61605  0.56943  0.30326  1.0000
  H   H160      1.0  0.63769  0.58446  0.39325  1.0000
  C   C215      1.0  0.40246  0.03229  0.31159  1.0000
  C   C216      1.0  0.38790  0.01851  0.38768  1.0000
  C   C217      1.0  0.36717  0.99246  0.38163  1.0000
  H   H161      1.0  0.35757  0.98340  0.43905  1.0000
  H   H162      1.0  0.39257  0.02717  0.44927  1.0000
  O   O43       1.0  0.41493  0.03146  0.66123  1.0000
  C   C218      1.0  0.37046  0.97978  0.65042  1.0000
  O   O44       1.0  0.37809  0.96439  0.63236  1.0000
  O   O45       1.0  0.34795  0.97288  0.62406  1.0000
  H   H163      1.0  0.33950  0.98160  0.63486  1.0000
  C   C219      1.0  0.42503  0.05956  0.32338  1.0000
  H   H164      1.0  0.44277  0.05919  0.30325  1.0000
  H   H165      1.0  0.42773  0.06578  0.39327  1.0000
  C   C220      1.0  0.02796  0.63376  0.31160  1.0000
  C   C221      1.0  0.01419  0.63456  0.38770  1.0000
  C   C222      1.0  0.98814  0.62924  0.38166  1.0000
  H   H166      1.0  0.97908  0.62978  0.43908  1.0000
  H   H167      1.0  0.02286  0.63855  0.44928  1.0000
  O   O46       1.0  0.02712  0.62045  0.66125  1.0000
  C   C223      1.0  0.97543  0.61324  0.65046  1.0000
  O   O47       1.0  0.96006  0.59022  0.63239  1.0000
  O   O48       1.0  0.96853  0.62884  0.62411  1.0000
  H   H168      1.0  0.97723  0.64601  0.63491  1.0000
  C   C224      1.0  0.05523  0.63846  0.32338  1.0000
  H   H169      1.0  0.05486  0.62035  0.30326  1.0000
  H   H170      1.0  0.06146  0.64199  0.39326  1.0000
  C   C225      1.0  0.37843  0.40679  0.31159  1.0000
  C   C226      1.0  0.37763  0.39222  0.38768  1.0000
  C   C227      1.0  0.38295  0.37149  0.38163  1.0000
  H   H171      1.0  0.38242  0.36189  0.43904  1.0000
  H   H172      1.0  0.37365  0.39689  0.44926  1.0000
  O   O49       1.0  0.39171  0.41925  0.66122  1.0000
  C   C228      1.0  0.39892  0.37478  0.65040  1.0000
  O   O50       1.0  0.42194  0.38240  0.63236  1.0000
  O   O51       1.0  0.38330  0.35227  0.62405  1.0000
  H   H173      1.0  0.36614  0.34383  0.63483  1.0000
  C   C229      1.0  0.37372  0.42935  0.32337  1.0000
  H   H174      1.0  0.39183  0.44709  0.30324  1.0000
  H   H175      1.0  0.37020  0.43206  0.39326  1.0000
  C   C230      1.0  0.60541  0.98420  0.31159  1.0000
  C   C231      1.0  0.61998  0.99797  0.38769  1.0000
  C   C232      1.0  0.64071  0.02402  0.38165  1.0000
  H   H176      1.0  0.65031  0.03308  0.43907  1.0000
  H   H177      1.0  0.61531  0.98930  0.44927  1.0000
  O   O52       1.0  0.59293  0.98505  0.66124  1.0000
  C   C233      1.0  0.63741  0.03673  0.65045  1.0000
  O   O53       1.0  0.62976  0.05210  0.63238  1.0000
  O   O54       1.0  0.65992  0.04364  0.62410  1.0000
  H   H178      1.0  0.66838  0.03494  0.63490  1.0000
  C   C234      1.0  0.58284  0.95693  0.32337  1.0000
  H   H179      1.0  0.56511  0.95731  0.30326  1.0000
  H   H180      1.0  0.58014  0.95070  0.39325  1.0000
