data_image0
_chemical_formula_structural       C2OHCHC2OHCHC2H2CH2C2H2CH2C19OHC6O2H2C6O2H2N12C3H3C3H2C3H2C3H2C3H2C4H2C8H4C4H2C8H4C8H4C8H4C3OHC6O2H2C6O2H2N12C3H3C3H2C3H2C3H2C3H2C4H2C8H4C4H2C8H4C8H4C8H4C6O2H2C6O2H2C6O2H2N12C3H2C3H2C3H2C3H2C3H2C3H2C8H4C8H4C8H4C8H4C8H4C8H4C6O2H2C6O2H2C6O2H2N12C3H2C3H2C3H2C3H2C3H2C3H2C8H4C8H4C8H4C8H4C8H4C8H4
_chemical_formula_sum              "C336 O24 H168 N48"
_cell_length_a       46.6397
_cell_length_b       46.6396
_cell_length_c       14.9312
_cell_angle_alpha    90
_cell_angle_beta     90
_cell_angle_gamma    120

_space_group_name_H-M_alt    "P 1"
_space_group_IT_number       1

loop_
  _space_group_symop_operation_xyz
  'x, y, z'

loop_
  _atom_site_type_symbol
  _atom_site_label
  _atom_site_symmetry_multiplicity
  _atom_site_fract_x
  _atom_site_fract_y
  _atom_site_fract_z
  _atom_site_occupancy
  C   C1        1.0  0.02142  0.26210  0.36278  1.0000
  C   C2        1.0  0.03977  0.29753  0.34902  1.0000
  O   O1        1.0  0.02562  0.31595  0.32657  1.0000
  H   H1        1.0  0.01992  0.31184  0.26260  1.0000
  C   C3        1.0  0.04158  0.24708  0.37344  1.0000
  H   H2        1.0  0.03137  0.22292  0.39079  1.0000
  C   C4        1.0  0.02142  0.76210  0.36278  1.0000
  C   C5        1.0  0.03977  0.79753  0.34902  1.0000
  O   O2        1.0  0.02561  0.81595  0.32657  1.0000
  H   H3        1.0  0.01992  0.81183  0.26260  1.0000
  C   C6        1.0  0.04158  0.74708  0.37344  1.0000
  H   H4        1.0  0.03137  0.72292  0.39079  1.0000
  C   C7        1.0  0.07488  0.31586  0.34448  1.0000
  C   C8        1.0  0.07602  0.26362  0.35678  1.0000
  H   H5        1.0  0.06541  0.22656  0.51319  1.0000
  H   H6        1.0  0.08220  0.20540  0.63541  1.0000
  C   C9        1.0  0.08116  0.36153  0.49391  1.0000
  H   H7        1.0  0.07435  0.37311  0.62601  1.0000
  H   H8        1.0  0.05865  0.34033  0.49279  1.0000
  C   C10       1.0  0.07488  0.81586  0.34448  1.0000
  C   C11       1.0  0.07602  0.76362  0.35678  1.0000
  H   H9        1.0  0.06541  0.72656  0.51319  1.0000
  H   H10       1.0  0.08220  0.70540  0.63541  1.0000
  C   C12       1.0  0.08116  0.86154  0.49391  1.0000
  H   H11       1.0  0.07434  0.87310  0.62601  1.0000
  H   H12       1.0  0.05865  0.84033  0.49279  1.0000
  C   C13       1.0  0.09187  0.29803  0.34326  1.0000
  C   C14       1.0  0.10439  0.23413  0.42419  1.0000
  C   C15       1.0  0.09632  0.24892  0.35222  1.0000
  C   C16       1.0  0.08601  0.22451  0.50508  1.0000
  C   C17       1.0  0.09579  0.21223  0.57763  1.0000
  C   C18       1.0  0.09468  0.35096  0.34098  1.0000
  C   C19       1.0  0.10257  0.37140  0.41865  1.0000
  C   C20       1.0  0.09012  0.38062  0.57245  1.0000
  C   C21       1.0  0.09187  0.79803  0.34326  1.0000
  C   C22       1.0  0.10439  0.73413  0.42419  1.0000
  C   C23       1.0  0.09632  0.74892  0.35222  1.0000
  C   C24       1.0  0.08601  0.72451  0.50508  1.0000
  C   C25       1.0  0.09579  0.71223  0.57763  1.0000
  C   C26       1.0  0.09468  0.85096  0.34098  1.0000
  C   C27       1.0  0.10257  0.87140  0.41865  1.0000
  C   C28       1.0  0.09012  0.88062  0.57245  1.0000
  C   C29       1.0  0.48549  0.24237  0.36274  1.0000
  C   C30       1.0  0.43199  0.18866  0.34435  1.0000
  C   C31       1.0  0.46709  0.20694  0.34901  1.0000
  O   O3        1.0  0.48123  0.18847  0.32691  1.0000
  H   H13       1.0  0.48693  0.19250  0.26292  1.0000
  C   C32       1.0  0.26337  0.24423  0.36322  1.0000
  C   C33       1.0  0.31710  0.24446  0.34514  1.0000
  C   C34       1.0  0.29878  0.26125  0.34921  1.0000
  C   C35       1.0  0.24367  0.26045  0.36336  1.0000
  C   C36       1.0  0.20824  0.24345  0.34968  1.0000
  C   C37       1.0  0.18997  0.26029  0.34565  1.0000
  O   O4        1.0  0.31719  0.29381  0.32655  1.0000
  O   O5        1.0  0.18980  0.21091  0.32681  1.0000
  H   H14       1.0  0.31302  0.29533  0.26258  1.0000
  H   H15       1.0  0.19397  0.20944  0.26282  1.0000
  C   C38       1.0  0.26160  0.02025  0.36319  1.0000
  C   C39       1.0  0.26170  0.07392  0.34519  1.0000
  C   C40       1.0  0.24473  0.03880  0.34958  1.0000
  C   C41       1.0  0.24524  0.48431  0.36321  1.0000
  C   C42       1.0  0.26214  0.46579  0.34970  1.0000
  C   C43       1.0  0.24519  0.43068  0.34544  1.0000
  O   O6        1.0  0.21215  0.02484  0.32726  1.0000
  O   O7        1.0  0.29470  0.47976  0.32726  1.0000
  H   H16       1.0  0.21052  0.01918  0.26325  1.0000
  H   H17       1.0  0.29631  0.48541  0.26325  1.0000
  N   N1        1.0  0.11708  0.25900  0.28071  1.0000
  N   N2        1.0  0.14398  0.25740  0.27560  1.0000
  N   N3        1.0  0.24696  0.35913  0.28133  1.0000
  N   N4        1.0  0.24823  0.38747  0.27612  1.0000
  N   N5        1.0  0.14634  0.38907  0.28053  1.0000
  N   N6        1.0  0.11793  0.36207  0.27546  1.0000
  N   N7        1.0  0.38991  0.24566  0.28058  1.0000
  N   N8        1.0  0.36307  0.24737  0.27558  1.0000
  N   N9        1.0  0.26022  0.14559  0.28098  1.0000
  N   N10       1.0  0.25880  0.11719  0.27578  1.0000
  N   N11       1.0  0.36056  0.11537  0.28018  1.0000
  N   N12       1.0  0.38895  0.14239  0.27491  1.0000
  C   C44       1.0  0.46534  0.25741  0.37339  1.0000
  C   C45       1.0  0.43092  0.24092  0.35650  1.0000
  C   C46       1.0  0.41505  0.20653  0.34261  1.0000
  H   H18       1.0  0.47557  0.28154  0.39101  1.0000
  H   H19       1.0  0.38965  0.19362  0.33891  1.0000
  H   H20       1.0  0.11727  0.31096  0.33962  1.0000
  C   C47       1.0  0.24829  0.20904  0.37396  1.0000
  C   C48       1.0  0.26483  0.19112  0.35757  1.0000
  C   C49       1.0  0.29925  0.20964  0.34438  1.0000
  H   H21       1.0  0.22412  0.19512  0.39121  1.0000
  H   H22       1.0  0.31216  0.19714  0.34106  1.0000
  C   C50       1.0  0.20786  0.29511  0.34471  1.0000
  C   C51       1.0  0.24228  0.31359  0.35786  1.0000
  C   C52       1.0  0.25878  0.29563  0.37416  1.0000
  H   H23       1.0  0.19498  0.30764  0.34127  1.0000
  H   H24       1.0  0.28293  0.30952  0.39162  1.0000
  C   C53       1.0  0.29682  0.04025  0.37363  1.0000
  C   C54       1.0  0.31488  0.07467  0.35679  1.0000
  C   C55       1.0  0.29651  0.09071  0.34338  1.0000
  H   H25       1.0  0.31065  0.02993  0.39118  1.0000
  H   H26       1.0  0.30912  0.11611  0.33971  1.0000
  C   C56       1.0  0.21038  0.41385  0.34377  1.0000
  C   C57       1.0  0.19198  0.42988  0.35688  1.0000
  C   C58       1.0  0.21002  0.46431  0.37362  1.0000
  H   H27       1.0  0.19779  0.38845  0.34003  1.0000
  H   H28       1.0  0.19617  0.47462  0.39093  1.0000
  C   C59       1.0  0.15488  0.24512  0.34117  1.0000
  C   C60       1.0  0.13431  0.23236  0.41859  1.0000
  C   C61       1.0  0.12466  0.21011  0.57180  1.0000
  C   C62       1.0  0.14392  0.22046  0.49359  1.0000
  H   H29       1.0  0.13201  0.20164  0.62522  1.0000
  H   H30       1.0  0.16506  0.21903  0.49253  1.0000
  C   C63       1.0  0.26026  0.41068  0.34163  1.0000
  C   C64       1.0  0.27304  0.40300  0.41928  1.0000
  C   C65       1.0  0.27151  0.37143  0.42504  1.0000
  C   C66       1.0  0.25720  0.34860  0.35285  1.0000
  C   C67       1.0  0.28111  0.36274  0.50608  1.0000
  C   C68       1.0  0.29306  0.38474  0.57879  1.0000
  C   C69       1.0  0.29491  0.41560  0.57289  1.0000
  C   C70       1.0  0.28463  0.42445  0.49445  1.0000
  H   H31       1.0  0.27936  0.34020  0.51406  1.0000
  H   H32       1.0  0.29994  0.37806  0.63663  1.0000
  H   H33       1.0  0.30320  0.43141  0.62637  1.0000
  H   H34       1.0  0.28586  0.44693  0.49337  1.0000
  C   C71       1.0  0.13419  0.40138  0.42437  1.0000
  C   C72       1.0  0.15695  0.40985  0.35201  1.0000
  C   C73       1.0  0.14298  0.41963  0.50549  1.0000
  C   C74       1.0  0.12102  0.40959  0.57831  1.0000
  H   H35       1.0  0.16555  0.44036  0.51347  1.0000
  H   H36       1.0  0.12778  0.42310  0.63624  1.0000
  C   C75       1.0  0.35219  0.25974  0.34108  1.0000
  C   C76       1.0  0.37278  0.27233  0.41849  1.0000
  C   C77       1.0  0.40263  0.27046  0.42415  1.0000
  C   C78       1.0  0.41067  0.25569  0.35208  1.0000
  C   C79       1.0  0.42097  0.27997  0.50511  1.0000
  C   C80       1.0  0.41120  0.29225  0.57768  1.0000
  C   C81       1.0  0.38238  0.29446  0.57180  1.0000
  C   C82       1.0  0.36317  0.28423  0.49350  1.0000
  H   H37       1.0  0.44153  0.27786  0.51325  1.0000
  H   H38       1.0  0.42476  0.29902  0.63552  1.0000
  H   H39       1.0  0.37505  0.30295  0.62523  1.0000
  H   H40       1.0  0.34207  0.28573  0.49235  1.0000
  C   C83       1.0  0.24666  0.09395  0.34123  1.0000
  C   C84       1.0  0.23380  0.10162  0.41872  1.0000
  C   C85       1.0  0.23540  0.13323  0.42454  1.0000
  C   C86       1.0  0.25005  0.15612  0.35260  1.0000
  C   C87       1.0  0.22573  0.14190  0.50549  1.0000
  C   C88       1.0  0.21356  0.11982  0.57798  1.0000
  C   C89       1.0  0.21161  0.08891  0.57202  1.0000
  C   C90       1.0  0.22202  0.08010  0.49372  1.0000
  H   H41       1.0  0.22762  0.16449  0.51362  1.0000
  H   H42       1.0  0.20668  0.12650  0.63582  1.0000
  H   H43       1.0  0.20323  0.07307  0.62543  1.0000
  H   H44       1.0  0.22073  0.05760  0.49265  1.0000
  C   C91       1.0  0.41209  0.15355  0.34062  1.0000
  C   C92       1.0  0.40428  0.13323  0.41853  1.0000
  C   C93       1.0  0.37267  0.10324  0.42430  1.0000
  C   C94       1.0  0.34991  0.09467  0.35187  1.0000
  C   C95       1.0  0.36386  0.08506  0.50552  1.0000
  C   C96       1.0  0.38579  0.09515  0.57841  1.0000
  C   C97       1.0  0.41670  0.12411  0.57250  1.0000
  C   C98       1.0  0.42567  0.14315  0.49386  1.0000
  H   H45       1.0  0.34130  0.06432  0.51352  1.0000
  H   H46       1.0  0.37903  0.08167  0.63638  1.0000
  H   H47       1.0  0.43245  0.13167  0.62609  1.0000
  H   H48       1.0  0.44818  0.16435  0.49274  1.0000
  C   C99       1.0  0.48549  0.74237  0.36274  1.0000
  C   C100      1.0  0.43199  0.68866  0.34435  1.0000
  C   C101      1.0  0.46709  0.70695  0.34901  1.0000
  O   O8        1.0  0.48123  0.68847  0.32691  1.0000
  H   H49       1.0  0.48693  0.69251  0.26292  1.0000
  C   C102      1.0  0.26337  0.74423  0.36322  1.0000
  C   C103      1.0  0.31710  0.74446  0.34514  1.0000
  C   C104      1.0  0.29878  0.76125  0.34921  1.0000
  C   C105      1.0  0.24367  0.76045  0.36336  1.0000
  C   C106      1.0  0.20824  0.74345  0.34968  1.0000
  C   C107      1.0  0.18997  0.76029  0.34565  1.0000
  O   O9        1.0  0.31719  0.79381  0.32655  1.0000
  O   O10       1.0  0.18980  0.71091  0.32681  1.0000
  H   H50       1.0  0.31302  0.79533  0.26258  1.0000
  H   H51       1.0  0.19397  0.70944  0.26282  1.0000
  C   C108      1.0  0.26160  0.52026  0.36319  1.0000
  C   C109      1.0  0.26170  0.57392  0.34519  1.0000
  C   C110      1.0  0.24473  0.53880  0.34958  1.0000
  C   C111      1.0  0.24523  0.98431  0.36321  1.0000
  C   C112      1.0  0.26214  0.96579  0.34970  1.0000
  C   C113      1.0  0.24519  0.93068  0.34544  1.0000
  O   O11       1.0  0.21215  0.52484  0.32726  1.0000
  O   O12       1.0  0.29470  0.97976  0.32726  1.0000
  H   H52       1.0  0.21051  0.51918  0.26325  1.0000
  H   H53       1.0  0.29631  0.98541  0.26325  1.0000
  N   N13       1.0  0.11708  0.75900  0.28071  1.0000
  N   N14       1.0  0.14398  0.75741  0.27560  1.0000
  N   N15       1.0  0.24696  0.85913  0.28133  1.0000
  N   N16       1.0  0.24824  0.88747  0.27612  1.0000
  N   N17       1.0  0.14634  0.88907  0.28053  1.0000
  N   N18       1.0  0.11793  0.86206  0.27546  1.0000
  N   N19       1.0  0.38991  0.74566  0.28058  1.0000
  N   N20       1.0  0.36307  0.74737  0.27558  1.0000
  N   N21       1.0  0.26022  0.64560  0.28098  1.0000
  N   N22       1.0  0.25880  0.61719  0.27578  1.0000
  N   N23       1.0  0.36056  0.61537  0.28018  1.0000
  N   N24       1.0  0.38895  0.64239  0.27491  1.0000
  C   C114      1.0  0.46534  0.75741  0.37339  1.0000
  C   C115      1.0  0.43092  0.74092  0.35650  1.0000
  C   C116      1.0  0.41505  0.70653  0.34261  1.0000
  H   H54       1.0  0.47557  0.78154  0.39101  1.0000
  H   H55       1.0  0.38965  0.69362  0.33891  1.0000
  H   H56       1.0  0.11727  0.81096  0.33962  1.0000
  C   C117      1.0  0.24829  0.70904  0.37396  1.0000
  C   C118      1.0  0.26483  0.69112  0.35757  1.0000
  C   C119      1.0  0.29925  0.70964  0.34438  1.0000
  H   H57       1.0  0.22412  0.69512  0.39121  1.0000
  H   H58       1.0  0.31216  0.69714  0.34106  1.0000
  C   C120      1.0  0.20786  0.79511  0.34471  1.0000
  C   C121      1.0  0.24228  0.81358  0.35786  1.0000
  C   C122      1.0  0.25878  0.79563  0.37416  1.0000
  H   H59       1.0  0.19498  0.80764  0.34127  1.0000
  H   H60       1.0  0.28293  0.80952  0.39162  1.0000
  C   C123      1.0  0.29682  0.54024  0.37363  1.0000
  C   C124      1.0  0.31488  0.57467  0.35679  1.0000
  C   C125      1.0  0.29651  0.59071  0.34338  1.0000
  H   H61       1.0  0.31065  0.52993  0.39118  1.0000
  H   H62       1.0  0.30912  0.61611  0.33971  1.0000
  C   C126      1.0  0.21038  0.91385  0.34377  1.0000
  C   C127      1.0  0.19198  0.92988  0.35688  1.0000
  C   C128      1.0  0.21002  0.96431  0.37362  1.0000
  H   H63       1.0  0.19779  0.88845  0.34003  1.0000
  H   H64       1.0  0.19617  0.97462  0.39093  1.0000
  C   C129      1.0  0.15488  0.74512  0.34117  1.0000
  C   C130      1.0  0.13431  0.73236  0.41859  1.0000
  C   C131      1.0  0.12465  0.71011  0.57180  1.0000
  C   C132      1.0  0.14392  0.72046  0.49359  1.0000
  H   H65       1.0  0.13201  0.70164  0.62522  1.0000
  H   H66       1.0  0.16506  0.71903  0.49253  1.0000
  C   C133      1.0  0.26026  0.91068  0.34163  1.0000
  C   C134      1.0  0.27303  0.90299  0.41928  1.0000
  C   C135      1.0  0.27151  0.87143  0.42504  1.0000
  C   C136      1.0  0.25720  0.84860  0.35285  1.0000
  C   C137      1.0  0.28111  0.86273  0.50608  1.0000
  C   C138      1.0  0.29306  0.88474  0.57879  1.0000
  C   C139      1.0  0.29491  0.91560  0.57289  1.0000
  C   C140      1.0  0.28463  0.92446  0.49445  1.0000
  H   H67       1.0  0.27936  0.84020  0.51406  1.0000
  H   H68       1.0  0.29994  0.87806  0.63663  1.0000
  H   H69       1.0  0.30320  0.93141  0.62637  1.0000
  H   H70       1.0  0.28586  0.94693  0.49337  1.0000
  C   C141      1.0  0.13419  0.90138  0.42437  1.0000
  C   C142      1.0  0.15694  0.90986  0.35201  1.0000
  C   C143      1.0  0.14298  0.91963  0.50549  1.0000
  C   C144      1.0  0.12102  0.90959  0.57831  1.0000
  H   H71       1.0  0.16555  0.94036  0.51347  1.0000
  H   H72       1.0  0.12778  0.92310  0.63624  1.0000
  C   C145      1.0  0.35219  0.75974  0.34108  1.0000
  C   C146      1.0  0.37278  0.77233  0.41849  1.0000
  C   C147      1.0  0.40263  0.77046  0.42415  1.0000
  C   C148      1.0  0.41066  0.75569  0.35208  1.0000
  C   C149      1.0  0.42097  0.77997  0.50511  1.0000
  C   C150      1.0  0.41120  0.79225  0.57768  1.0000
  C   C151      1.0  0.38238  0.79446  0.57180  1.0000
  C   C152      1.0  0.36317  0.78423  0.49350  1.0000
  H   H73       1.0  0.44153  0.77786  0.51325  1.0000
  H   H74       1.0  0.42476  0.79901  0.63552  1.0000
  H   H75       1.0  0.37505  0.80295  0.62523  1.0000
  H   H76       1.0  0.34207  0.78573  0.49235  1.0000
  C   C153      1.0  0.24666  0.59395  0.34123  1.0000
  C   C154      1.0  0.23380  0.60162  0.41872  1.0000
  C   C155      1.0  0.23540  0.63323  0.42454  1.0000
  C   C156      1.0  0.25005  0.65612  0.35260  1.0000
  C   C157      1.0  0.22573  0.64190  0.50549  1.0000
  C   C158      1.0  0.21356  0.61981  0.57798  1.0000
  C   C159      1.0  0.21161  0.58891  0.57202  1.0000
  C   C160      1.0  0.22201  0.58009  0.49372  1.0000
  H   H77       1.0  0.22763  0.66449  0.51362  1.0000
  H   H78       1.0  0.20668  0.62650  0.63582  1.0000
  H   H79       1.0  0.20323  0.57307  0.62543  1.0000
  H   H80       1.0  0.22073  0.55760  0.49265  1.0000
  C   C161      1.0  0.41209  0.65355  0.34062  1.0000
  C   C162      1.0  0.40428  0.63323  0.41853  1.0000
  C   C163      1.0  0.37267  0.60324  0.42430  1.0000
  C   C164      1.0  0.34991  0.59467  0.35187  1.0000
  C   C165      1.0  0.36386  0.58506  0.50552  1.0000
  C   C166      1.0  0.38579  0.59515  0.57841  1.0000
  C   C167      1.0  0.41670  0.62411  0.57250  1.0000
  C   C168      1.0  0.42567  0.64315  0.49386  1.0000
  H   H81       1.0  0.34130  0.56432  0.51352  1.0000
  H   H82       1.0  0.37902  0.58167  0.63638  1.0000
  H   H83       1.0  0.43245  0.63167  0.62609  1.0000
  H   H84       1.0  0.44818  0.66435  0.49274  1.0000
  C   C169      1.0  0.98549  0.24237  0.36274  1.0000
  C   C170      1.0  0.93199  0.18866  0.34435  1.0000
  C   C171      1.0  0.96709  0.20694  0.34901  1.0000
  C   C172      1.0  0.52142  0.26210  0.36278  1.0000
  C   C173      1.0  0.53978  0.29753  0.34902  1.0000
  C   C174      1.0  0.57488  0.31586  0.34448  1.0000
  O   O13       1.0  0.98123  0.18847  0.32691  1.0000
  O   O14       1.0  0.52562  0.31595  0.32657  1.0000
  H   H85       1.0  0.98693  0.19250  0.26292  1.0000
  H   H86       1.0  0.51992  0.31184  0.26260  1.0000
  C   C175      1.0  0.76337  0.24423  0.36322  1.0000
  C   C176      1.0  0.81710  0.24446  0.34514  1.0000
  C   C177      1.0  0.79878  0.26125  0.34921  1.0000
  C   C178      1.0  0.74367  0.26045  0.36336  1.0000
  C   C179      1.0  0.70824  0.24345  0.34968  1.0000
  C   C180      1.0  0.68997  0.26029  0.34565  1.0000
  O   O15       1.0  0.81719  0.29381  0.32655  1.0000
  O   O16       1.0  0.68980  0.21091  0.32681  1.0000
  H   H87       1.0  0.81302  0.29533  0.26258  1.0000
  H   H88       1.0  0.69397  0.20944  0.26282  1.0000
  C   C181      1.0  0.76161  0.02025  0.36319  1.0000
  C   C182      1.0  0.76170  0.07392  0.34519  1.0000
  C   C183      1.0  0.74473  0.03880  0.34958  1.0000
  C   C184      1.0  0.74523  0.48431  0.36321  1.0000
  C   C185      1.0  0.76214  0.46579  0.34970  1.0000
  C   C186      1.0  0.74519  0.43068  0.34544  1.0000
  O   O17       1.0  0.71215  0.02484  0.32726  1.0000
  O   O18       1.0  0.79470  0.47976  0.32726  1.0000
  H   H89       1.0  0.71051  0.01918  0.26325  1.0000
  H   H90       1.0  0.79631  0.48541  0.26325  1.0000
  N   N25       1.0  0.61708  0.25900  0.28071  1.0000
  N   N26       1.0  0.64398  0.25740  0.27560  1.0000
  N   N27       1.0  0.74696  0.35913  0.28133  1.0000
  N   N28       1.0  0.74823  0.38747  0.27612  1.0000
  N   N29       1.0  0.64634  0.38907  0.28053  1.0000
  N   N30       1.0  0.61793  0.36207  0.27546  1.0000
  N   N31       1.0  0.88991  0.24566  0.28058  1.0000
  N   N32       1.0  0.86307  0.24737  0.27558  1.0000
  N   N33       1.0  0.76022  0.14559  0.28098  1.0000
  N   N34       1.0  0.75880  0.11719  0.27578  1.0000
  N   N35       1.0  0.86056  0.11537  0.28018  1.0000
  N   N36       1.0  0.88895  0.14239  0.27491  1.0000
  C   C187      1.0  0.96535  0.25741  0.37339  1.0000
  C   C188      1.0  0.93092  0.24092  0.35650  1.0000
  C   C189      1.0  0.91505  0.20653  0.34261  1.0000
  H   H91       1.0  0.97557  0.28154  0.39101  1.0000
  H   H92       1.0  0.88965  0.19362  0.33891  1.0000
  C   C190      1.0  0.59187  0.29803  0.34326  1.0000
  C   C191      1.0  0.57602  0.26362  0.35678  1.0000
  C   C192      1.0  0.54158  0.24708  0.37344  1.0000
  H   H93       1.0  0.61727  0.31096  0.33962  1.0000
  H   H94       1.0  0.53137  0.22292  0.39079  1.0000
  C   C193      1.0  0.74829  0.20904  0.37396  1.0000
  C   C194      1.0  0.76483  0.19112  0.35757  1.0000
  C   C195      1.0  0.79925  0.20964  0.34438  1.0000
  H   H95       1.0  0.72412  0.19512  0.39121  1.0000
  H   H96       1.0  0.81216  0.19714  0.34106  1.0000
  C   C196      1.0  0.70786  0.29511  0.34471  1.0000
  C   C197      1.0  0.74228  0.31359  0.35786  1.0000
  C   C198      1.0  0.75878  0.29563  0.37416  1.0000
  H   H97       1.0  0.69498  0.30764  0.34127  1.0000
  H   H98       1.0  0.78293  0.30952  0.39162  1.0000
  C   C199      1.0  0.79682  0.04025  0.37363  1.0000
  C   C200      1.0  0.81488  0.07467  0.35679  1.0000
  C   C201      1.0  0.79651  0.09071  0.34338  1.0000
  H   H99       1.0  0.81065  0.02993  0.39118  1.0000
  H   H100      1.0  0.80912  0.11611  0.33971  1.0000
  C   C202      1.0  0.71038  0.41385  0.34377  1.0000
  C   C203      1.0  0.69198  0.42988  0.35688  1.0000
  C   C204      1.0  0.71002  0.46431  0.37362  1.0000
  H   H101      1.0  0.69779  0.38845  0.34003  1.0000
  H   H102      1.0  0.69617  0.47462  0.39093  1.0000
  C   C205      1.0  0.65488  0.24512  0.34117  1.0000
  C   C206      1.0  0.63431  0.23236  0.41859  1.0000
  C   C207      1.0  0.60439  0.23413  0.42419  1.0000
  C   C208      1.0  0.59632  0.24892  0.35222  1.0000
  C   C209      1.0  0.58601  0.22451  0.50508  1.0000
  C   C210      1.0  0.59579  0.21223  0.57763  1.0000
  C   C211      1.0  0.62465  0.21011  0.57180  1.0000
  C   C212      1.0  0.64392  0.22046  0.49359  1.0000
  H   H103      1.0  0.56541  0.22656  0.51319  1.0000
  H   H104      1.0  0.58220  0.20540  0.63541  1.0000
  H   H105      1.0  0.63201  0.20164  0.62522  1.0000
  H   H106      1.0  0.66506  0.21903  0.49253  1.0000
  C   C213      1.0  0.76026  0.41068  0.34163  1.0000
  C   C214      1.0  0.77304  0.40300  0.41928  1.0000
  C   C215      1.0  0.77151  0.37143  0.42504  1.0000
  C   C216      1.0  0.75720  0.34860  0.35285  1.0000
  C   C217      1.0  0.78111  0.36274  0.50608  1.0000
  C   C218      1.0  0.79306  0.38474  0.57879  1.0000
  C   C219      1.0  0.79491  0.41560  0.57289  1.0000
  C   C220      1.0  0.78463  0.42445  0.49445  1.0000
  H   H107      1.0  0.77936  0.34020  0.51406  1.0000
  H   H108      1.0  0.79994  0.37806  0.63663  1.0000
  H   H109      1.0  0.80320  0.43141  0.62637  1.0000
  H   H110      1.0  0.78586  0.44693  0.49337  1.0000
  C   C221      1.0  0.59468  0.35096  0.34098  1.0000
  C   C222      1.0  0.60257  0.37140  0.41865  1.0000
  C   C223      1.0  0.63419  0.40138  0.42437  1.0000
  C   C224      1.0  0.65695  0.40985  0.35201  1.0000
  C   C225      1.0  0.64298  0.41963  0.50549  1.0000
  C   C226      1.0  0.62102  0.40959  0.57831  1.0000
  C   C227      1.0  0.59012  0.38062  0.57245  1.0000
  C   C228      1.0  0.58116  0.36153  0.49391  1.0000
  H   H111      1.0  0.66555  0.44036  0.51347  1.0000
  H   H112      1.0  0.62778  0.42310  0.63624  1.0000
  H   H113      1.0  0.57434  0.37311  0.62601  1.0000
  H   H114      1.0  0.55865  0.34033  0.49279  1.0000
  C   C229      1.0  0.85219  0.25974  0.34108  1.0000
  C   C230      1.0  0.87278  0.27233  0.41849  1.0000
  C   C231      1.0  0.90263  0.27046  0.42415  1.0000
  C   C232      1.0  0.91066  0.25569  0.35208  1.0000
  C   C233      1.0  0.92097  0.27997  0.50511  1.0000
  C   C234      1.0  0.91120  0.29225  0.57768  1.0000
  C   C235      1.0  0.88238  0.29446  0.57180  1.0000
  C   C236      1.0  0.86317  0.28423  0.49350  1.0000
  H   H115      1.0  0.94153  0.27786  0.51325  1.0000
  H   H116      1.0  0.92476  0.29902  0.63552  1.0000
  H   H117      1.0  0.87505  0.30295  0.62523  1.0000
  H   H118      1.0  0.84207  0.28573  0.49235  1.0000
  C   C237      1.0  0.74666  0.09395  0.34123  1.0000
  C   C238      1.0  0.73380  0.10162  0.41872  1.0000
  C   C239      1.0  0.73540  0.13323  0.42454  1.0000
  C   C240      1.0  0.75005  0.15612  0.35260  1.0000
  C   C241      1.0  0.72573  0.14190  0.50549  1.0000
  C   C242      1.0  0.71356  0.11982  0.57798  1.0000
  C   C243      1.0  0.71161  0.08891  0.57202  1.0000
  C   C244      1.0  0.72201  0.08010  0.49372  1.0000
  H   H119      1.0  0.72762  0.16449  0.51362  1.0000
  H   H120      1.0  0.70668  0.12650  0.63582  1.0000
  H   H121      1.0  0.70323  0.07307  0.62543  1.0000
  H   H122      1.0  0.72073  0.05760  0.49265  1.0000
  C   C245      1.0  0.91209  0.15355  0.34062  1.0000
  C   C246      1.0  0.90428  0.13323  0.41853  1.0000
  C   C247      1.0  0.87267  0.10324  0.42430  1.0000
  C   C248      1.0  0.84991  0.09467  0.35187  1.0000
  C   C249      1.0  0.86386  0.08506  0.50552  1.0000
  C   C250      1.0  0.88579  0.09515  0.57841  1.0000
  C   C251      1.0  0.91670  0.12411  0.57250  1.0000
  C   C252      1.0  0.92567  0.14315  0.49386  1.0000
  H   H123      1.0  0.84130  0.06432  0.51352  1.0000
  H   H124      1.0  0.87902  0.08167  0.63638  1.0000
  H   H125      1.0  0.93246  0.13167  0.62609  1.0000
  H   H126      1.0  0.94818  0.16435  0.49274  1.0000
  C   C253      1.0  0.98549  0.74237  0.36274  1.0000
  C   C254      1.0  0.93198  0.68866  0.34435  1.0000
  C   C255      1.0  0.96709  0.70695  0.34901  1.0000
  C   C256      1.0  0.52141  0.76210  0.36278  1.0000
  C   C257      1.0  0.53977  0.79753  0.34902  1.0000
  C   C258      1.0  0.57488  0.81586  0.34448  1.0000
  O   O19       1.0  0.98123  0.68847  0.32691  1.0000
  O   O20       1.0  0.52562  0.81595  0.32657  1.0000
  H   H127      1.0  0.98693  0.69251  0.26292  1.0000
  H   H128      1.0  0.51992  0.81183  0.26260  1.0000
  C   C259      1.0  0.76337  0.74423  0.36322  1.0000
  C   C260      1.0  0.81710  0.74446  0.34514  1.0000
  C   C261      1.0  0.79878  0.76125  0.34921  1.0000
  C   C262      1.0  0.74367  0.76045  0.36336  1.0000
  C   C263      1.0  0.70824  0.74345  0.34968  1.0000
  C   C264      1.0  0.68997  0.76029  0.34565  1.0000
  O   O21       1.0  0.81719  0.79381  0.32655  1.0000
  O   O22       1.0  0.68980  0.71091  0.32681  1.0000
  H   H129      1.0  0.81302  0.79533  0.26258  1.0000
  H   H130      1.0  0.69397  0.70944  0.26282  1.0000
  C   C265      1.0  0.76160  0.52026  0.36319  1.0000
  C   C266      1.0  0.76170  0.57392  0.34519  1.0000
  C   C267      1.0  0.74473  0.53880  0.34958  1.0000
  C   C268      1.0  0.74523  0.98431  0.36321  1.0000
  C   C269      1.0  0.76214  0.96579  0.34970  1.0000
  C   C270      1.0  0.74519  0.93068  0.34544  1.0000
  O   O23       1.0  0.71215  0.52484  0.32726  1.0000
  O   O24       1.0  0.79470  0.97976  0.32726  1.0000
  H   H131      1.0  0.71051  0.51918  0.26325  1.0000
  H   H132      1.0  0.79631  0.98541  0.26325  1.0000
  N   N37       1.0  0.61708  0.75900  0.28071  1.0000
  N   N38       1.0  0.64398  0.75741  0.27560  1.0000
  N   N39       1.0  0.74696  0.85913  0.28133  1.0000
  N   N40       1.0  0.74823  0.88747  0.27612  1.0000
  N   N41       1.0  0.64634  0.88907  0.28053  1.0000
  N   N42       1.0  0.61793  0.86206  0.27546  1.0000
  N   N43       1.0  0.88991  0.74566  0.28058  1.0000
  N   N44       1.0  0.86307  0.74737  0.27558  1.0000
  N   N45       1.0  0.76022  0.64560  0.28098  1.0000
  N   N46       1.0  0.75880  0.61719  0.27578  1.0000
  N   N47       1.0  0.86056  0.61537  0.28018  1.0000
  N   N48       1.0  0.88895  0.64239  0.27491  1.0000
  C   C271      1.0  0.96534  0.75741  0.37339  1.0000
  C   C272      1.0  0.93092  0.74092  0.35650  1.0000
  C   C273      1.0  0.91505  0.70653  0.34261  1.0000
  H   H133      1.0  0.97557  0.78154  0.39101  1.0000
  H   H134      1.0  0.88965  0.69362  0.33891  1.0000
  C   C274      1.0  0.59187  0.79803  0.34326  1.0000
  C   C275      1.0  0.57602  0.76362  0.35678  1.0000
  C   C276      1.0  0.54158  0.74708  0.37344  1.0000
  H   H135      1.0  0.61727  0.81096  0.33962  1.0000
  H   H136      1.0  0.53137  0.72292  0.39079  1.0000
  C   C277      1.0  0.74829  0.70904  0.37396  1.0000
  C   C278      1.0  0.76483  0.69112  0.35757  1.0000
  C   C279      1.0  0.79925  0.70964  0.34438  1.0000
  H   H137      1.0  0.72412  0.69512  0.39121  1.0000
  H   H138      1.0  0.81216  0.69714  0.34106  1.0000
  C   C280      1.0  0.70786  0.79511  0.34471  1.0000
  C   C281      1.0  0.74228  0.81358  0.35786  1.0000
  C   C282      1.0  0.75878  0.79563  0.37416  1.0000
  H   H139      1.0  0.69498  0.80764  0.34127  1.0000
  H   H140      1.0  0.78293  0.80952  0.39162  1.0000
  C   C283      1.0  0.79682  0.54024  0.37363  1.0000
  C   C284      1.0  0.81488  0.57467  0.35679  1.0000
  C   C285      1.0  0.79651  0.59071  0.34338  1.0000
  H   H141      1.0  0.81065  0.52993  0.39118  1.0000
  H   H142      1.0  0.80912  0.61611  0.33971  1.0000
  C   C286      1.0  0.71038  0.91385  0.34377  1.0000
  C   C287      1.0  0.69198  0.92988  0.35688  1.0000
  C   C288      1.0  0.71002  0.96431  0.37362  1.0000
  H   H143      1.0  0.69779  0.88845  0.34003  1.0000
  H   H144      1.0  0.69617  0.97462  0.39093  1.0000
  C   C289      1.0  0.65488  0.74512  0.34117  1.0000
  C   C290      1.0  0.63431  0.73236  0.41859  1.0000
  C   C291      1.0  0.60439  0.73413  0.42419  1.0000
  C   C292      1.0  0.59632  0.74892  0.35222  1.0000
  C   C293      1.0  0.58601  0.72451  0.50508  1.0000
  C   C294      1.0  0.59579  0.71223  0.57763  1.0000
  C   C295      1.0  0.62465  0.71011  0.57180  1.0000
  C   C296      1.0  0.64392  0.72046  0.49359  1.0000
  H   H145      1.0  0.56541  0.72656  0.51319  1.0000
  H   H146      1.0  0.58220  0.70540  0.63541  1.0000
  H   H147      1.0  0.63201  0.70164  0.62522  1.0000
  H   H148      1.0  0.66506  0.71903  0.49253  1.0000
  C   C297      1.0  0.76026  0.91068  0.34163  1.0000
  C   C298      1.0  0.77303  0.90299  0.41928  1.0000
  C   C299      1.0  0.77151  0.87143  0.42504  1.0000
  C   C300      1.0  0.75720  0.84860  0.35285  1.0000
  C   C301      1.0  0.78111  0.86273  0.50608  1.0000
  C   C302      1.0  0.79306  0.88474  0.57879  1.0000
  C   C303      1.0  0.79491  0.91560  0.57289  1.0000
  C   C304      1.0  0.78463  0.92446  0.49445  1.0000
  H   H149      1.0  0.77936  0.84020  0.51406  1.0000
  H   H150      1.0  0.79994  0.87806  0.63663  1.0000
  H   H151      1.0  0.80320  0.93141  0.62637  1.0000
  H   H152      1.0  0.78586  0.94693  0.49337  1.0000
  C   C305      1.0  0.59468  0.85096  0.34098  1.0000
  C   C306      1.0  0.60257  0.87140  0.41865  1.0000
  C   C307      1.0  0.63419  0.90138  0.42437  1.0000
  C   C308      1.0  0.65695  0.90986  0.35201  1.0000
  C   C309      1.0  0.64298  0.91963  0.50549  1.0000
  C   C310      1.0  0.62102  0.90959  0.57831  1.0000
  C   C311      1.0  0.59012  0.88062  0.57245  1.0000
  C   C312      1.0  0.58116  0.86154  0.49391  1.0000
  H   H153      1.0  0.66555  0.94036  0.51347  1.0000
  H   H154      1.0  0.62778  0.92310  0.63624  1.0000
  H   H155      1.0  0.57434  0.87310  0.62601  1.0000
  H   H156      1.0  0.55865  0.84033  0.49279  1.0000
  C   C313      1.0  0.85220  0.75974  0.34108  1.0000
  C   C314      1.0  0.87278  0.77233  0.41849  1.0000
  C   C315      1.0  0.90263  0.77046  0.42415  1.0000
  C   C316      1.0  0.91066  0.75569  0.35208  1.0000
  C   C317      1.0  0.92097  0.77997  0.50511  1.0000
  C   C318      1.0  0.91120  0.79225  0.57768  1.0000
  C   C319      1.0  0.88238  0.79446  0.57180  1.0000
  C   C320      1.0  0.86317  0.78423  0.49350  1.0000
  H   H157      1.0  0.94153  0.77786  0.51325  1.0000
  H   H158      1.0  0.92476  0.79901  0.63552  1.0000
  H   H159      1.0  0.87505  0.80295  0.62523  1.0000
  H   H160      1.0  0.84207  0.78573  0.49235  1.0000
  C   C321      1.0  0.74666  0.59395  0.34123  1.0000
  C   C322      1.0  0.73380  0.60162  0.41872  1.0000
  C   C323      1.0  0.73540  0.63323  0.42454  1.0000
  C   C324      1.0  0.75005  0.65612  0.35260  1.0000
  C   C325      1.0  0.72573  0.64190  0.50549  1.0000
  C   C326      1.0  0.71356  0.61981  0.57798  1.0000
  C   C327      1.0  0.71161  0.58891  0.57202  1.0000
  C   C328      1.0  0.72201  0.58009  0.49372  1.0000
  H   H161      1.0  0.72762  0.66449  0.51362  1.0000
  H   H162      1.0  0.70668  0.62650  0.63582  1.0000
  H   H163      1.0  0.70323  0.57307  0.62543  1.0000
  H   H164      1.0  0.72073  0.55760  0.49265  1.0000
  C   C329      1.0  0.91209  0.65355  0.34062  1.0000
  C   C330      1.0  0.90428  0.63323  0.41853  1.0000
  C   C331      1.0  0.87267  0.60324  0.42430  1.0000
  C   C332      1.0  0.84991  0.59467  0.35187  1.0000
  C   C333      1.0  0.86386  0.58506  0.50552  1.0000
  C   C334      1.0  0.88579  0.59515  0.57841  1.0000
  C   C335      1.0  0.91670  0.62411  0.57250  1.0000
  C   C336      1.0  0.92567  0.64315  0.49386  1.0000
  H   H165      1.0  0.84130  0.56432  0.51352  1.0000
  H   H166      1.0  0.87902  0.58167  0.63638  1.0000
  H   H167      1.0  0.93245  0.63167  0.62609  1.0000
  H   H168      1.0  0.94818  0.66435  0.49274  1.0000
