data_image0
_chemical_formula_structural       C3NC3NC5NC5NC20H18N4C3NC2NH2CHC3NC2NH2CHC8H8C3H2OCHC3H2OCH
_chemical_formula_sum              "C64 N12 H38 O2"
_cell_length_a       25.7285
_cell_length_b       25.7263
_cell_length_c       14.705
_cell_angle_alpha    90
_cell_angle_beta     90
_cell_angle_gamma    89.9701

_space_group_name_H-M_alt    "P 1"
_space_group_IT_number       1

loop_
  _space_group_symop_operation_xyz
  'x, y, z'

loop_
  _atom_site_type_symbol
  _atom_site_label
  _atom_site_symmetry_multiplicity
  _atom_site_fract_x
  _atom_site_fract_y
  _atom_site_fract_z
  _atom_site_occupancy
  C   C1        1.0  0.91283  0.14498  0.34042  1.0000
  C   C2        1.0  0.87469  0.10720  0.33990  1.0000
  C   C3        1.0  0.89881  0.05851  0.33900  1.0000
  N   N1        1.0  0.95059  0.06872  0.33851  1.0000
  C   C4        1.0  0.96128  0.12040  0.33939  1.0000
  C   C5        1.0  0.01009  0.14655  0.33940  1.0000
  C   C6        1.0  0.05920  0.12116  0.33826  1.0000
  N   N2        1.0  0.06915  0.06949  0.33828  1.0000
  C   C7        1.0  0.12072  0.05914  0.33628  1.0000
  C   C8        1.0  0.14547  0.10745  0.33460  1.0000
  C   C9        1.0  0.10767  0.14557  0.33604  1.0000
  C   C10       1.0  0.14569  0.00980  0.33495  1.0000
  C   C11       1.0  0.11902  0.96123  0.33473  1.0000
  N   N3        1.0  0.06723  0.95098  0.33547  1.0000
  C   C12       1.0  0.05652  0.89930  0.33441  1.0000
  C   C13       1.0  0.10499  0.87475  0.33300  1.0000
  C   C14       1.0  0.14311  0.91252  0.33379  1.0000
  C   C15       1.0  0.00770  0.87308  0.33423  1.0000
  C   C16       1.0  0.95859  0.89851  0.33532  1.0000
  N   N4        1.0  0.94870  0.95019  0.33550  1.0000
  C   C17       1.0  0.89713  0.96059  0.33736  1.0000
  C   C18       1.0  0.87230  0.91232  0.33864  1.0000
  C   C19       1.0  0.91008  0.87417  0.33751  1.0000
  C   C20       1.0  0.87219  0.00993  0.33867  1.0000
  C   C21       1.0  0.81658  0.01063  0.34002  1.0000
  C   C22       1.0  0.70550  0.01296  0.34255  1.0000
  C   C23       1.0  0.73307  0.00733  0.25976  1.0000
  C   C24       1.0  0.78784  0.00614  0.25849  1.0000
  C   C25       1.0  0.00783  0.81742  0.33245  1.0000
  C   C26       1.0  0.00686  0.70620  0.32888  1.0000
  C   C27       1.0  0.99718  0.73542  0.24932  1.0000
  C   C28       1.0  0.99777  0.79020  0.25082  1.0000
  C   C29       1.0  0.20135  0.00912  0.33298  1.0000
  C   C30       1.0  0.22843  0.99957  0.25103  1.0000
  C   C31       1.0  0.28321  0.99872  0.24932  1.0000
  C   C32       1.0  0.31255  0.00773  0.32897  1.0000
  C   C33       1.0  0.00996  0.20218  0.34055  1.0000
  C   C34       1.0  0.00510  0.23083  0.25897  1.0000
  C   C35       1.0  0.01177  0.31328  0.34277  1.0000
  C   C36       1.0  0.00604  0.28561  0.26010  1.0000
  H   H1        1.0  0.00351  0.30514  0.19972  1.0000
  H   H2        1.0  0.00138  0.21195  0.19806  1.0000
  H   H3        1.0  0.90563  0.18404  0.34134  1.0000
  H   H4        1.0  0.83571  0.11479  0.34028  1.0000
  H   H5        1.0  0.97686  0.04220  0.33783  1.0000
  H   H6        1.0  0.04097  0.97750  0.33626  1.0000
  H   H7        1.0  0.11497  0.18460  0.33440  1.0000
  H   H8        1.0  0.18452  0.11450  0.33185  1.0000
  H   H9        1.0  0.20840  0.99300  0.19200  1.0000
  H   H10       1.0  0.30163  0.99157  0.18890  1.0000
  H   H11       1.0  0.18208  0.90489  0.33333  1.0000
  H   H12       1.0  0.11225  0.83571  0.33164  1.0000
  H   H13       1.0  0.83323  0.90536  0.34116  1.0000
  H   H14       1.0  0.90270  0.83516  0.33919  1.0000
  H   H15       1.0  0.99058  0.81013  0.19191  1.0000
  H   H16       1.0  0.98960  0.71690  0.18915  1.0000
  H   H17       1.0  0.80664  0.00237  0.19750  1.0000
  H   H18       1.0  0.71348  0.00497  0.19942  1.0000
  N   N5        1.0  0.00535  0.65439  0.32142  1.0000
  N   N6        1.0  0.36436  0.00617  0.32131  1.0000
  N   N7        1.0  0.01499  0.36510  0.34777  1.0000
  N   N8        1.0  0.65368  0.01617  0.34767  1.0000
  C   C37       1.0  0.00275  0.45397  0.31366  1.0000
  C   C38       1.0  0.01004  0.49019  0.24120  1.0000
  C   C39       1.0  0.01370  0.54458  0.26092  1.0000
  N   N9        1.0  0.02061  0.57785  0.18999  1.0000
  C   C40       1.0  0.02412  0.56279  0.10217  1.0000
  C   C41       1.0  0.02116  0.50962  0.08239  1.0000
  N   N10       1.0  0.01445  0.47529  0.15172  1.0000
  H   H19       1.0  0.02937  0.58975  0.05203  1.0000
  H   H20       1.0  0.01353  0.43872  0.13518  1.0000
  C   C42       1.0  0.99460  0.40103  0.29819  1.0000
  H   H21       1.0  0.97115  0.39091  0.24750  1.0000
  C   C43       1.0  0.56484  0.00368  0.31367  1.0000
  C   C44       1.0  0.52860  0.01057  0.24112  1.0000
  C   C45       1.0  0.47419  0.01418  0.26077  1.0000
  N   N11       1.0  0.44090  0.02070  0.18975  1.0000
  C   C46       1.0  0.45597  0.02390  0.10189  1.0000
  C   C47       1.0  0.50915  0.02099  0.08216  1.0000
  N   N12       1.0  0.54349  0.01465  0.15159  1.0000
  H   H22       1.0  0.42900  0.02882  0.05167  1.0000
  H   H23       1.0  0.58006  0.01376  0.13508  1.0000
  C   C48       1.0  0.61779  0.99555  0.29832  1.0000
  H   H24       1.0  0.62798  0.97194  0.24787  1.0000
  C   C49       1.0  0.78919  0.01651  0.42273  1.0000
  C   C50       1.0  0.73441  0.01806  0.42371  1.0000
  C   C51       1.0  0.01744  0.78839  0.41233  1.0000
  C   C52       1.0  0.01707  0.73359  0.41052  1.0000
  C   C53       1.0  0.28529  0.01745  0.41094  1.0000
  C   C54       1.0  0.23051  0.01804  0.41296  1.0000
  C   C55       1.0  0.01595  0.22967  0.42313  1.0000
  C   C56       1.0  0.01722  0.28445  0.42395  1.0000
  H   H25       1.0  0.02206  0.30327  0.48469  1.0000
  H   H26       1.0  0.01999  0.20993  0.48315  1.0000
  H   H27       1.0  0.21198  0.02501  0.47334  1.0000
  H   H28       1.0  0.30494  0.02388  0.47022  1.0000
  H   H29       1.0  0.02466  0.80702  0.47251  1.0000
  H   H30       1.0  0.02399  0.71403  0.46972  1.0000
  H   H31       1.0  0.71566  0.02274  0.48454  1.0000
  H   H32       1.0  0.80899  0.02015  0.48276  1.0000
  C   C57       1.0  0.01069  0.56377  0.35148  1.0000
  C   C58       1.0  0.00422  0.52680  0.42183  1.0000
  C   C59       1.0  0.00008  0.47333  0.40353  1.0000
  H   H33       1.0  0.99410  0.44861  0.45711  1.0000
  H   H34       1.0  0.00161  0.53858  0.48820  1.0000
  O   O1        1.0  0.02544  0.49305  0.66204  1.0000
  C   C60       1.0  0.01545  0.61635  0.37564  1.0000
  H   H35       1.0  0.02703  0.62471  0.43843  1.0000
  C   C61       1.0  0.45500  0.01149  0.35137  1.0000
  C   C62       1.0  0.49200  0.00538  0.42179  1.0000
  C   C63       1.0  0.54548  0.00129  0.40355  1.0000
  H   H36       1.0  0.57020  0.99558  0.45722  1.0000
  H   H37       1.0  0.48022  0.00299  0.48818  1.0000
  O   O2        1.0  0.52571  0.02492  0.66177  1.0000
  C   C64       1.0  0.40241  0.01623  0.37551  1.0000
  H   H38       1.0  0.39405  0.02783  0.43828  1.0000
