data_image0
_chemical_formula_structural       C2NH2CHCHC3HC3NH4C6N2H6C6N2H6C4H3C4H4C4H4C4H4C4H4C4H4C3HN2H2C3HNC3NH3C3HNC3NH3C3HC4H2NO2C4HC4H2NO2C4HC4HNO2C4HC4H2NO2C4HC4H2NO2C4HC4H2NO2
_chemical_formula_sum              "C108 N18 H72 O12"
_cell_length_a       31.4423
_cell_length_b       31.4423
_cell_length_c       14.8748
_cell_angle_alpha    90
_cell_angle_beta     90
_cell_angle_gamma    120

_space_group_name_H-M_alt    "P 1"
_space_group_IT_number       1

loop_
  _space_group_symop_operation_xyz
  'x, y, z'

loop_
  _atom_site_type_symbol
  _atom_site_label
  _atom_site_symmetry_multiplicity
  _atom_site_fract_x
  _atom_site_fract_y
  _atom_site_fract_z
  _atom_site_occupancy
  C   C1        1.0  0.03327  0.51873  0.33235  1.0000
  C   C2        1.0  0.06129  0.56985  0.30845  1.0000
  N   N1        1.0  0.04011  0.59140  0.26022  1.0000
  H   H1        1.0  0.05877  0.62509  0.23915  1.0000
  H   H2        1.0  0.00828  0.57174  0.23187  1.0000
  C   C3        1.0  0.06035  0.49627  0.36215  1.0000
  H   H3        1.0  0.04219  0.45975  0.37835  1.0000
  C   C4        1.0  0.11264  0.59784  0.32972  1.0000
  H   H4        1.0  0.12880  0.47937  0.22941  1.0000
  C   C5        1.0  0.13847  0.57361  0.35924  1.0000
  C   C6        1.0  0.11206  0.52152  0.36800  1.0000
  C   C7        1.0  0.13703  0.49387  0.36941  1.0000
  H   H5        1.0  0.11623  0.66675  0.43983  1.0000
  C   C8        1.0  0.97936  0.48962  0.33236  1.0000
  C   C9        1.0  0.89999  0.41052  0.32972  1.0000
  C   C10       1.0  0.95133  0.43851  0.30845  1.0000
  N   N2        1.0  0.97258  0.41695  0.26037  1.0000
  H   H6        1.0  0.00426  0.43674  0.23165  1.0000
  H   H7        1.0  0.95369  0.38338  0.23879  1.0000
  H   H8        1.0  0.20614  0.63500  0.38168  1.0000
  H   H9        1.0  0.80651  0.37336  0.38183  1.0000
  C   C11       1.0  0.52084  0.49180  0.33243  1.0000
  C   C12       1.0  0.59993  0.49151  0.32983  1.0000
  C   C13       1.0  0.57195  0.51487  0.30853  1.0000
  C   C14       1.0  0.49175  0.51662  0.33245  1.0000
  C   C15       1.0  0.44065  0.49356  0.30846  1.0000
  C   C16       1.0  0.41268  0.51694  0.32970  1.0000
  N   N3        1.0  0.59350  0.55760  0.26028  1.0000
  N   N4        1.0  0.41910  0.45081  0.26026  1.0000
  H   H10       1.0  0.57389  0.56984  0.23200  1.0000
  H   H11       1.0  0.62720  0.57262  0.23928  1.0000
  H   H12       1.0  0.38546  0.43598  0.23899  1.0000
  H   H13       1.0  0.43875  0.43866  0.23185  1.0000
  H   H14       1.0  0.37557  0.57334  0.38168  1.0000
  H   H15       1.0  0.63706  0.43519  0.38206  1.0000
  C   C17       1.0  0.51874  0.03117  0.33237  1.0000
  C   C18       1.0  0.51908  0.11058  0.32966  1.0000
  C   C19       1.0  0.49569  0.05923  0.30843  1.0000
  C   C20       1.0  0.49390  0.97726  0.33241  1.0000
  C   C21       1.0  0.51695  0.94919  0.30847  1.0000
  C   C22       1.0  0.49355  0.89784  0.32972  1.0000
  N   N5        1.0  0.45290  0.03805  0.26035  1.0000
  N   N6        1.0  0.55976  0.97039  0.26042  1.0000
  H   H16       1.0  0.44091  0.00630  0.23177  1.0000
  H   H17       1.0  0.43804  0.05679  0.23894  1.0000
  H   H18       1.0  0.57442  0.95150  0.23876  1.0000
  H   H19       1.0  0.57162  0.00207  0.23165  1.0000
  H   H20       1.0  0.43708  0.80430  0.38155  1.0000
  H   H21       1.0  0.57556  0.20413  0.38138  1.0000
  C   C23       1.0  0.14646  0.47832  0.28654  1.0000
  C   C24       1.0  0.18418  0.46685  0.27842  1.0000
  C   C25       1.0  0.29097  0.49888  0.26012  1.0000
  C   C26       1.0  0.33931  0.50761  0.25091  1.0000
  H   H22       1.0  0.27970  0.51616  0.21585  1.0000
  H   H23       1.0  0.36115  0.53136  0.20185  1.0000
  H   H24       1.0  0.19116  0.45828  0.21577  1.0000
  C   C27       1.0  0.53221  0.67025  0.28670  1.0000
  C   C28       1.0  0.54357  0.71942  0.27857  1.0000
  C   C29       1.0  0.51168  0.79424  0.26024  1.0000
  C   C30       1.0  0.50292  0.83383  0.25103  1.0000
  H   H25       1.0  0.49428  0.76565  0.21610  1.0000
  H   H26       1.0  0.47908  0.83191  0.20216  1.0000
  H   H27       1.0  0.53102  0.65154  0.22948  1.0000
  H   H28       1.0  0.55209  0.73492  0.21589  1.0000
  C   C31       1.0  0.34028  0.86409  0.28672  1.0000
  C   C32       1.0  0.29109  0.82633  0.27853  1.0000
  C   C33       1.0  0.21627  0.71959  0.26005  1.0000
  C   C34       1.0  0.17667  0.67125  0.25086  1.0000
  H   H29       1.0  0.24487  0.73077  0.21593  1.0000
  H   H30       1.0  0.17859  0.64933  0.20200  1.0000
  H   H31       1.0  0.35896  0.88168  0.22953  1.0000
  H   H32       1.0  0.27559  0.81934  0.21585  1.0000
  C   C35       1.0  0.86608  0.53000  0.28643  1.0000
  C   C36       1.0  0.82840  0.54154  0.27835  1.0000
  C   C37       1.0  0.72163  0.50956  0.26011  1.0000
  C   C38       1.0  0.67327  0.50075  0.25105  1.0000
  H   H33       1.0  0.73289  0.49232  0.21571  1.0000
  H   H34       1.0  0.65139  0.47713  0.20186  1.0000
  H   H35       1.0  0.88374  0.52900  0.22927  1.0000
  H   H36       1.0  0.82141  0.55010  0.21571  1.0000
  C   C39       1.0  0.48042  0.33819  0.28659  1.0000
  C   C40       1.0  0.46895  0.28898  0.27846  1.0000
  C   C41       1.0  0.50098  0.21423  0.26013  1.0000
  C   C42       1.0  0.50971  0.17463  0.25089  1.0000
  H   H37       1.0  0.51823  0.24278  0.21584  1.0000
  H   H38       1.0  0.53344  0.17655  0.20179  1.0000
  H   H39       1.0  0.48148  0.35689  0.22945  1.0000
  H   H40       1.0  0.46040  0.27346  0.21581  1.0000
  C   C43       1.0  0.67239  0.14427  0.28667  1.0000
  C   C44       1.0  0.72156  0.18207  0.27854  1.0000
  C   C45       1.0  0.79641  0.28879  0.26022  1.0000
  C   C46       1.0  0.83601  0.33713  0.25105  1.0000
  H   H41       1.0  0.76781  0.27761  0.21608  1.0000
  H   H42       1.0  0.83409  0.35906  0.20219  1.0000
  H   H43       1.0  0.65368  0.12675  0.22946  1.0000
  H   H44       1.0  0.73707  0.18904  0.21587  1.0000
  C   C47       1.0  0.95227  0.51210  0.36207  1.0000
  C   C48       1.0  0.90056  0.48686  0.36794  1.0000
  C   C49       1.0  0.87416  0.43477  0.35926  1.0000
  H   H45       1.0  0.97043  0.54862  0.37830  1.0000
  N   N7        1.0  0.82479  0.40885  0.37807  1.0000
  N   N8        1.0  0.18784  0.59951  0.37801  1.0000
  H   H46       1.0  0.20634  0.58401  0.39613  1.0000
  H   H47       1.0  0.80632  0.42436  0.39625  1.0000
  C   C50       1.0  0.49835  0.44225  0.36222  1.0000
  C   C51       1.0  0.52358  0.41577  0.36806  1.0000
  C   C52       1.0  0.57568  0.44145  0.35939  1.0000
  H   H48       1.0  0.46182  0.42389  0.37840  1.0000
  N   N9        1.0  0.60158  0.41798  0.37824  1.0000
  C   C53       1.0  0.43694  0.56701  0.35924  1.0000
  C   C54       1.0  0.48903  0.59267  0.36800  1.0000
  C   C55       1.0  0.51424  0.56616  0.36226  1.0000
  N   N10       1.0  0.41106  0.59051  0.37797  1.0000
  H   H49       1.0  0.55075  0.58449  0.37850  1.0000
  H   H50       1.0  0.42659  0.62450  0.39612  1.0000
  H   H51       1.0  0.58606  0.38400  0.39643  1.0000
  C   C56       1.0  0.56829  0.05822  0.36214  1.0000
  C   C57       1.0  0.59480  0.10994  0.36795  1.0000
  C   C58       1.0  0.56916  0.13637  0.35915  1.0000
  H   H52       1.0  0.58662  0.04003  0.37838  1.0000
  N   N11       1.0  0.59267  0.18576  0.37788  1.0000
  C   C59       1.0  0.44348  0.87205  0.35923  1.0000
  C   C60       1.0  0.41784  0.89850  0.36798  1.0000
  C   C61       1.0  0.44435  0.95021  0.36214  1.0000
  N   N12       1.0  0.41997  0.82268  0.37803  1.0000
  H   H53       1.0  0.42603  0.96841  0.37841  1.0000
  H   H54       1.0  0.38594  0.80419  0.39597  1.0000
  H   H55       1.0  0.62670  0.20425  0.39581  1.0000
  C   C62       1.0  0.21557  0.47246  0.35152  1.0000
  C   C63       1.0  0.20406  0.48516  0.43678  1.0000
  C   C64       1.0  0.16391  0.49375  0.44534  1.0000
  H   H56       1.0  0.15918  0.50730  0.50479  1.0000
  C   C65       1.0  0.26093  0.47255  0.33447  1.0000
  C   C66       1.0  0.36026  0.49206  0.31830  1.0000
  C   C67       1.0  0.32951  0.46233  0.38857  1.0000
  C   C68       1.0  0.28041  0.45184  0.39513  1.0000
  H   H57       1.0  0.34380  0.45161  0.43985  1.0000
  H   H58       1.0  0.26019  0.43199  0.44926  1.0000
  N   N13       1.0  0.23585  0.49498  0.51111  1.0000
  O   O1        1.0  0.21358  0.46813  0.57726  1.0000
  O   O2        1.0  0.25622  0.53920  0.53519  1.0000
  C   C69       1.0  0.51670  0.64528  0.36960  1.0000
  C   C70       1.0  0.53808  0.74525  0.35171  1.0000
  C   C71       1.0  0.52541  0.72103  0.43697  1.0000
  C   C72       1.0  0.51683  0.67230  0.44551  1.0000
  H   H59       1.0  0.50327  0.65400  0.50495  1.0000
  C   C73       1.0  0.53797  0.79050  0.33463  1.0000
  C   C74       1.0  0.51844  0.87031  0.31848  1.0000
  C   C75       1.0  0.54825  0.86936  0.38867  1.0000
  C   C76       1.0  0.55862  0.83067  0.39534  1.0000
  H   H60       1.0  0.55892  0.89435  0.43995  1.0000
  H   H61       1.0  0.57858  0.83036  0.44936  1.0000
  N   N14       1.0  0.51563  0.74301  0.51134  1.0000
  O   O3        1.0  0.54250  0.74758  0.57745  1.0000
  O   O4        1.0  0.47142  0.71917  0.53548  1.0000
  C   C77       1.0  0.36523  0.87360  0.36964  1.0000
  C   C78       1.0  0.26528  0.79495  0.35160  1.0000
  C   C79       1.0  0.28950  0.80645  0.43686  1.0000
  C   C80       1.0  0.33819  0.84669  0.44551  1.0000
  H   H62       1.0  0.35644  0.85125  0.50495  1.0000
  C   C81       1.0  0.22003  0.74957  0.33451  1.0000
  C   C82       1.0  0.14015  0.65025  0.31825  1.0000
  C   C83       1.0  0.14112  0.68106  0.38838  1.0000
  C   C84       1.0  0.17982  0.73011  0.39511  1.0000
  H   H63       1.0  0.18018  0.75031  0.44927  1.0000
  N   N15       1.0  0.26752  0.77460  0.51110  1.0000
  O   O5        1.0  0.26287  0.79679  0.57730  1.0000
  O   O6        1.0  0.29141  0.75426  0.53514  1.0000
  C   C85       1.0  0.87557  0.51448  0.36927  1.0000
  C   C86       1.0  0.79706  0.53600  0.35149  1.0000
  C   C87       1.0  0.80858  0.52329  0.43674  1.0000
  C   C88       1.0  0.84868  0.51462  0.44516  1.0000
  H   H64       1.0  0.85346  0.50120  0.50475  1.0000
  C   C89       1.0  0.75166  0.53586  0.33447  1.0000
  C   C90       1.0  0.65234  0.51639  0.31834  1.0000
  C   C91       1.0  0.68314  0.54623  0.38847  1.0000
  C   C92       1.0  0.73219  0.55658  0.39513  1.0000
  H   H65       1.0  0.66884  0.55684  0.43990  1.0000
  H   H66       1.0  0.75242  0.57646  0.44924  1.0000
  N   N16       1.0  0.77687  0.51359  0.51115  1.0000
  O   O7        1.0  0.79923  0.54046  0.57722  1.0000
  O   O8        1.0  0.75645  0.46937  0.53531  1.0000
  C   C93       1.0  0.49595  0.36315  0.36947  1.0000
  C   C94       1.0  0.47456  0.26321  0.35157  1.0000
  C   C95       1.0  0.48723  0.28741  0.43685  1.0000
  C   C96       1.0  0.49578  0.33613  0.44540  1.0000
  H   H67       1.0  0.50932  0.35442  0.50487  1.0000
  C   C97       1.0  0.47467  0.21794  0.33451  1.0000
  C   C98       1.0  0.49421  0.13812  0.31825  1.0000
  C   C99       1.0  0.46451  0.13916  0.38857  1.0000
  C   C100      1.0  0.45399  0.17775  0.39516  1.0000
  H   H68       1.0  0.45380  0.11416  0.43985  1.0000
  H   H69       1.0  0.43415  0.17811  0.44932  1.0000
  N   N17       1.0  0.49703  0.26543  0.51119  1.0000
  O   O9        1.0  0.47016  0.26084  0.57731  1.0000
  O   O10       1.0  0.54124  0.28929  0.53530  1.0000
  C   C101      1.0  0.64741  0.13484  0.36956  1.0000
  C   C102      1.0  0.74739  0.21340  0.35169  1.0000
  C   C103      1.0  0.72316  0.20189  0.43693  1.0000
  C   C104      1.0  0.67441  0.16175  0.44546  1.0000
  H   H70       1.0  0.65611  0.15703  0.50489  1.0000
  C   C105      1.0  0.79266  0.25876  0.33461  1.0000
  C   C106      1.0  0.87250  0.35810  0.31850  1.0000
  C   C107      1.0  0.87151  0.32730  0.38864  1.0000
  C   C108      1.0  0.83282  0.27825  0.39530  1.0000
  H   H71       1.0  0.89650  0.34161  0.43994  1.0000
  H   H72       1.0  0.83250  0.25798  0.44933  1.0000
  N   N18       1.0  0.74514  0.23366  0.51128  1.0000
  O   O11       1.0  0.74969  0.21137  0.57742  1.0000
  O   O12       1.0  0.72131  0.25405  0.53535  1.0000
