data_image0
_chemical_formula_structural       C2NCHCHCNCNC2HCHNC2NCHC3NHC3NHC4NC2NH2C4NC2NH2CHC2H2CHC2H2C2H2C2H2CNCNCNCNCNCNCNCNCNCNCNCNCNCNCNCHC2H2C2H2C3NHC4NC2NH2C2NCHC4NC2NH2C4NC2NH2C4NC2NH2
_chemical_formula_sum              "C90 N36 H36"
_cell_length_a       30.2467
_cell_length_b       30.2466
_cell_length_c       14.7506
_cell_angle_alpha    90
_cell_angle_beta     90
_cell_angle_gamma    120

_space_group_name_H-M_alt    "P 1"
_space_group_IT_number       1

loop_
  _space_group_symop_operation_xyz
  'x, y, z'

loop_
  _atom_site_type_symbol
  _atom_site_label
  _atom_site_symmetry_multiplicity
  _atom_site_fract_x
  _atom_site_fract_y
  _atom_site_fract_z
  _atom_site_occupancy
  C   C1        1.0  0.03996  0.52207  0.26722  1.0000
  C   C2        1.0  0.06754  0.53585  0.34984  1.0000
  N   N1        1.0  0.06439  0.53429  0.18568  1.0000
  C   C3        1.0  0.03952  0.52186  0.10505  1.0000
  H   H1        1.0  0.05960  0.53191  0.04569  1.0000
  C   C4        1.0  0.03966  0.52191  0.43189  1.0000
  H   H2        1.0  0.05848  0.53131  0.49275  1.0000
  C   C5        1.0  0.20002  0.64129  0.34887  1.0000
  N   N2        1.0  0.14804  0.61509  0.35048  1.0000
  C   C6        1.0  0.12170  0.56293  0.35132  1.0000
  N   N3        1.0  0.14805  0.53712  0.35056  1.0000
  C   C7        1.0  0.20004  0.56292  0.34883  1.0000
  C   C8        1.0  0.25559  0.54084  0.26927  1.0000
  H   H3        1.0  0.24251  0.54642  0.20868  1.0000
  C   C9        1.0  0.25560  0.71913  0.26912  1.0000
  H   H4        1.0  0.24255  0.70053  0.20847  1.0000
  N   N4        1.0  0.22498  0.61459  0.34867  1.0000
  C   C10       1.0  0.25545  0.54114  0.43343  1.0000
  C   C11       1.0  0.23084  0.54019  0.35104  1.0000
  N   N5        1.0  0.23665  0.54574  0.51471  1.0000
  C   C12       1.0  0.25993  0.54942  0.59515  1.0000
  H   H5        1.0  0.24422  0.55283  0.65416  1.0000
  C   C13       1.0  0.23081  0.69480  0.35068  1.0000
  C   C14       1.0  0.25542  0.71844  0.43315  1.0000
  C   C15       1.0  0.25987  0.71459  0.59490  1.0000
  N   N6        1.0  0.23661  0.69503  0.51443  1.0000
  H   H6        1.0  0.24411  0.69547  0.65388  1.0000
  C   C16       1.0  0.95790  0.48104  0.34984  1.0000
  C   C17       1.0  0.98548  0.49484  0.26722  1.0000
  C   C18       1.0  0.98592  0.49507  0.10505  1.0000
  N   N7        1.0  0.96104  0.48263  0.18568  1.0000
  H   H7        1.0  0.96584  0.48504  0.04569  1.0000
  C   C19       1.0  0.54007  0.48102  0.34986  1.0000
  C   C20       1.0  0.52628  0.49482  0.26725  1.0000
  C   C21       1.0  0.49902  0.52205  0.26726  1.0000
  C   C22       1.0  0.48521  0.53582  0.34988  1.0000
  N   N8        1.0  0.48681  0.53427  0.18572  1.0000
  C   C23       1.0  0.49926  0.52185  0.10508  1.0000
  C   C24       1.0  0.52607  0.49506  0.10507  1.0000
  N   N9        1.0  0.53851  0.48262  0.18571  1.0000
  H   H8        1.0  0.48922  0.53190  0.04573  1.0000
  H   H9        1.0  0.53613  0.48504  0.04572  1.0000
  C   C25       1.0  0.54006  0.06333  0.34982  1.0000
  C   C26       1.0  0.52630  0.03575  0.26720  1.0000
  C   C27       1.0  0.49910  0.98128  0.26720  1.0000
  C   C28       1.0  0.48533  0.95369  0.34982  1.0000
  N   N10       1.0  0.48690  0.95684  0.18567  1.0000
  C   C29       1.0  0.49931  0.98171  0.10503  1.0000
  C   C30       1.0  0.52608  0.03531  0.10503  1.0000
  N   N11       1.0  0.53850  0.06018  0.18567  1.0000
  H   H10       1.0  0.48929  0.96163  0.04567  1.0000
  H   H11       1.0  0.53610  0.05539  0.04567  1.0000
  C   C31       1.0  0.30217  0.54085  0.26930  1.0000
  H   H12       1.0  0.32087  0.54640  0.20873  1.0000
  C   C32       1.0  0.48041  0.71906  0.26903  1.0000
  C   C33       1.0  0.48042  0.76563  0.26907  1.0000
  H   H13       1.0  0.47517  0.77894  0.20845  1.0000
  H   H14       1.0  0.47511  0.70052  0.20837  1.0000
  C   C34       1.0  0.30221  0.76565  0.26936  1.0000
  H   H15       1.0  0.32085  0.77890  0.20878  1.0000
  C   C35       1.0  0.76988  0.47603  0.26935  1.0000
  C   C36       1.0  0.72324  0.47589  0.26935  1.0000
  H   H16       1.0  0.70469  0.47048  0.20866  1.0000
  H   H17       1.0  0.78306  0.47056  0.20874  1.0000
  C   C37       1.0  0.54505  0.29794  0.26917  1.0000
  C   C38       1.0  0.54514  0.25141  0.26925  1.0000
  H   H18       1.0  0.55059  0.23819  0.20868  1.0000
  H   H19       1.0  0.55061  0.31659  0.20855  1.0000
  C   C39       1.0  0.72329  0.25133  0.26901  1.0000
  C   C40       1.0  0.76985  0.29789  0.26904  1.0000
  H   H20       1.0  0.78316  0.31645  0.20842  1.0000
  H   H21       1.0  0.70475  0.23809  0.20834  1.0000
  C   C41       1.0  0.37978  0.56290  0.34892  1.0000
  N   N12       1.0  0.40597  0.53710  0.35062  1.0000
  C   C42       1.0  0.45813  0.56290  0.35136  1.0000
  N   N13       1.0  0.48395  0.61506  0.35049  1.0000
  C   C43       1.0  0.45817  0.64126  0.34891  1.0000
  N   N14       1.0  0.40650  0.61456  0.34875  1.0000
  C   C44       1.0  0.45826  0.82120  0.34910  1.0000
  N   N15       1.0  0.48407  0.87318  0.35051  1.0000
  C   C45       1.0  0.45826  0.89953  0.35131  1.0000
  N   N16       1.0  0.40610  0.87321  0.35057  1.0000
  C   C46       1.0  0.37990  0.82123  0.34897  1.0000
  N   N17       1.0  0.40659  0.79626  0.34889  1.0000
  C   C47       1.0  0.82540  0.37563  0.34905  1.0000
  N   N18       1.0  0.87738  0.40181  0.35049  1.0000
  C   C48       1.0  0.90374  0.45397  0.35132  1.0000
  N   N19       1.0  0.87740  0.47979  0.35063  1.0000
  C   C49       1.0  0.82541  0.45401  0.34906  1.0000
  N   N20       1.0  0.80045  0.40235  0.34889  1.0000
  C   C50       1.0  0.64551  0.45397  0.34866  1.0000
  N   N21       1.0  0.61932  0.47976  0.35049  1.0000
  C   C51       1.0  0.56716  0.45394  0.35131  1.0000
  N   N22       1.0  0.54135  0.40178  0.35048  1.0000
  C   C52       1.0  0.56713  0.37559  0.34866  1.0000
  N   N23       1.0  0.61880  0.40230  0.34849  1.0000
  C   C53       1.0  0.56714  0.19583  0.34891  1.0000
  N   N24       1.0  0.54134  0.14385  0.35059  1.0000
  C   C54       1.0  0.56714  0.11749  0.35131  1.0000
  N   N25       1.0  0.61930  0.14382  0.35045  1.0000
  C   C55       1.0  0.64550  0.19580  0.34890  1.0000
  N   N26       1.0  0.61880  0.22077  0.34874  1.0000
  C   C56       1.0  0.98577  0.49497  0.43189  1.0000
  H   H22       1.0  0.96695  0.48556  0.49274  1.0000
  C   C57       1.0  0.49915  0.52187  0.43192  1.0000
  C   C58       1.0  0.52610  0.49494  0.43192  1.0000
  H   H23       1.0  0.53551  0.48552  0.49277  1.0000
  H   H24       1.0  0.48972  0.53126  0.49277  1.0000
  C   C59       1.0  0.49924  0.98157  0.43187  1.0000
  C   C60       1.0  0.52615  0.03546  0.43188  1.0000
  H   H25       1.0  0.53555  0.05428  0.49273  1.0000
  H   H26       1.0  0.48984  0.96275  0.49273  1.0000
  C   C61       1.0  0.32625  0.54018  0.35109  1.0000
  C   C62       1.0  0.30258  0.54113  0.43346  1.0000
  C   C63       1.0  0.30633  0.54942  0.59518  1.0000
  N   N27       1.0  0.32595  0.54572  0.51477  1.0000
  H   H27       1.0  0.32543  0.55281  0.65420  1.0000
  C   C64       1.0  0.48094  0.79036  0.35074  1.0000
  C   C65       1.0  0.47987  0.76561  0.43310  1.0000
  C   C66       1.0  0.47984  0.71845  0.43306  1.0000
  C   C67       1.0  0.48088  0.69478  0.35066  1.0000
  N   N28       1.0  0.47524  0.69507  0.51437  1.0000
  C   C68       1.0  0.47155  0.71465  0.59482  1.0000
  C   C69       1.0  0.47160  0.76107  0.59486  1.0000
  N   N29       1.0  0.47531  0.78438  0.51445  1.0000
  H   H28       1.0  0.46817  0.69554  0.65382  1.0000
  H   H29       1.0  0.46822  0.77679  0.65389  1.0000
  C   C70       1.0  0.30256  0.76559  0.43326  1.0000
  C   C71       1.0  0.32640  0.79044  0.35110  1.0000
  N   N30       1.0  0.32588  0.78434  0.51461  1.0000
  C   C72       1.0  0.30625  0.76099  0.59499  1.0000
  H   H30       1.0  0.32532  0.77671  0.65405  1.0000
  C   C73       1.0  0.69901  0.47666  0.35094  1.0000
  C   C74       1.0  0.72280  0.47577  0.43326  1.0000
  C   C75       1.0  0.76995  0.47579  0.43343  1.0000
  C   C76       1.0  0.79464  0.47676  0.35114  1.0000
  N   N31       1.0  0.78872  0.47123  0.51477  1.0000
  C   C77       1.0  0.76536  0.46753  0.59514  1.0000
  C   C78       1.0  0.71895  0.46749  0.59501  1.0000
  N   N32       1.0  0.69939  0.47117  0.51453  1.0000
  H   H31       1.0  0.78106  0.46416  0.65420  1.0000
  H   H32       1.0  0.69981  0.46411  0.65399  1.0000
  C   C79       1.0  0.54442  0.22664  0.35105  1.0000
  C   C80       1.0  0.54536  0.25128  0.43340  1.0000
  C   C81       1.0  0.54537  0.29842  0.43334  1.0000
  C   C82       1.0  0.54441  0.32206  0.35094  1.0000
  N   N33       1.0  0.54998  0.32183  0.51461  1.0000
  C   C83       1.0  0.55365  0.30223  0.59506  1.0000
  C   C84       1.0  0.55365  0.25584  0.59511  1.0000
  N   N34       1.0  0.54995  0.23251  0.51472  1.0000
  H   H33       1.0  0.55707  0.32137  0.65405  1.0000
  H   H34       1.0  0.55704  0.24013  0.65416  1.0000
  C   C85       1.0  0.79458  0.32211  0.35070  1.0000
  C   C86       1.0  0.76984  0.29843  0.43307  1.0000
  C   C87       1.0  0.72268  0.25130  0.43304  1.0000
  C   C88       1.0  0.69901  0.22659  0.35064  1.0000
  N   N35       1.0  0.69931  0.23252  0.51436  1.0000
  C   C89       1.0  0.71889  0.25580  0.59480  1.0000
  C   C90       1.0  0.76531  0.30216  0.59484  1.0000
  N   N36       1.0  0.78861  0.32177  0.51442  1.0000
  H   H35       1.0  0.69978  0.24006  0.65380  1.0000
  H   H36       1.0  0.78103  0.32126  0.65386  1.0000
