data_image0
_chemical_formula_structural       C4NC2NHNHC4NC2NHNHC4NC2NHNHC2H2CH3C2H2CH3C2H2CH3CNCNCNC18H12CNCNCNC18H12CNCNCNC18H12CNCNCNC18H12C2H2CH3C2H2CH3C2H2CH3C4NC2NHNHC4NC2NHNHC4NC2NHNH
_chemical_formula_sum              "C138 N30 H90"
_cell_length_a       44.9605
_cell_length_b       44.9606
_cell_length_c       15.0066
_cell_angle_alpha    90
_cell_angle_beta     90
_cell_angle_gamma    120

_space_group_name_H-M_alt    "P 1"
_space_group_IT_number       1

loop_
  _space_group_symop_operation_xyz
  'x, y, z'

loop_
  _atom_site_type_symbol
  _atom_site_label
  _atom_site_symmetry_multiplicity
  _atom_site_fract_x
  _atom_site_fract_y
  _atom_site_fract_z
  _atom_site_occupancy
  C   C1        1.0  0.17359  0.08920  0.31987  1.0000
  C   C2        1.0  0.19225  0.08688  0.24664  1.0000
  C   C3        1.0  0.22875  0.10493  0.24764  1.0000
  C   C4        1.0  0.24697  0.12554  0.32182  1.0000
  N   N1        1.0  0.24533  0.10222  0.17483  1.0000
  C   C5        1.0  0.22891  0.08333  0.10192  1.0000
  C   C6        1.0  0.19277  0.06574  0.09969  1.0000
  N   N2        1.0  0.17615  0.06823  0.17258  1.0000
  H   H1        1.0  0.24285  0.08220  0.04962  1.0000
  N   N3        1.0  0.17450  0.04544  0.02538  1.0000
  H   H2        1.0  0.14940  0.02896  0.04293  1.0000
  C   C7        1.0  0.89823  0.08430  0.31988  1.0000
  C   C8        1.0  0.90053  0.10526  0.24665  1.0000
  C   C9        1.0  0.88248  0.12371  0.24764  1.0000
  C   C10       1.0  0.86186  0.12131  0.32180  1.0000
  N   N4        1.0  0.88518  0.14298  0.17481  1.0000
  C   C11       1.0  0.90407  0.14546  0.10190  1.0000
  C   C12       1.0  0.92167  0.12691  0.09968  1.0000
  N   N5        1.0  0.91918  0.10781  0.17258  1.0000
  H   H3        1.0  0.90521  0.16054  0.04960  1.0000
  N   N6        1.0  0.94198  0.12895  0.02539  1.0000
  H   H4        1.0  0.95845  0.12033  0.04295  1.0000
  C   C13       1.0  0.90314  0.81383  0.31988  1.0000
  C   C14       1.0  0.88218  0.79518  0.24666  1.0000
  C   C15       1.0  0.86372  0.75867  0.24766  1.0000
  C   C16       1.0  0.86611  0.74046  0.32184  1.0000
  N   N7        1.0  0.84444  0.74210  0.17485  1.0000
  C   C17       1.0  0.84195  0.75851  0.10194  1.0000
  C   C18       1.0  0.86050  0.79465  0.09970  1.0000
  N   N8        1.0  0.87961  0.81127  0.17259  1.0000
  H   H5        1.0  0.82688  0.74456  0.04964  1.0000
  N   N9        1.0  0.85846  0.81292  0.02539  1.0000
  H   H6        1.0  0.86709  0.83802  0.04295  1.0000
  C   C19       1.0  0.56863  0.12145  0.27942  1.0000
  C   C20       1.0  0.53746  0.12169  0.28153  1.0000
  H   H7        1.0  0.52352  0.11635  0.22390  1.0000
  H   H8        1.0  0.57631  0.11610  0.22021  1.0000
  C   C21       1.0  0.54465  0.16356  0.06402  1.0000
  H   H9        1.0  0.56476  0.15877  0.08841  1.0000
  H   H10       1.0  0.52150  0.13899  0.05038  1.0000
  H   H11       1.0  0.53887  0.17666  0.11667  1.0000
  C   C22       1.0  0.86599  0.44707  0.27925  1.0000
  C   C23       1.0  0.86578  0.41567  0.28142  1.0000
  H   H12       1.0  0.87106  0.40701  0.22382  1.0000
  H   H13       1.0  0.87134  0.46008  0.22002  1.0000
  C   C24       1.0  0.82386  0.38104  0.06386  1.0000
  H   H14       1.0  0.82866  0.40595  0.08823  1.0000
  H   H15       1.0  0.84842  0.38245  0.05024  1.0000
  H   H16       1.0  0.81076  0.36218  0.11653  1.0000
  C   C25       1.0  0.54040  0.41879  0.27936  1.0000
  C   C26       1.0  0.57179  0.44998  0.28152  1.0000
  H   H17       1.0  0.58039  0.46394  0.22391  1.0000
  H   H18       1.0  0.52739  0.41113  0.22013  1.0000
  C   C27       1.0  0.60639  0.44273  0.06402  1.0000
  H   H19       1.0  0.58149  0.42261  0.08836  1.0000
  H   H20       1.0  0.60497  0.46588  0.05042  1.0000
  H   H21       1.0  0.62525  0.44848  0.11669  1.0000
  C   C28       1.0  0.97443  0.96036  0.32865  1.0000
  N   N10       1.0  0.00931  0.97906  0.32854  1.0000
  C   C29       1.0  0.02707  0.01398  0.32864  1.0000
  N   N11       1.0  0.00836  0.03015  0.32855  1.0000
  C   C30       1.0  0.97345  0.01300  0.32867  1.0000
  N   N12       1.0  0.95727  0.97812  0.32855  1.0000
  C   C31       1.0  0.06366  0.03278  0.32744  1.0000
  C   C32       1.0  0.08292  0.01584  0.31825  1.0000
  C   C33       1.0  0.11901  0.03437  0.31559  1.0000
  C   C34       1.0  0.13711  0.07055  0.32240  1.0000
  C   C35       1.0  0.11820  0.08766  0.33281  1.0000
  C   C36       1.0  0.08209  0.06908  0.33476  1.0000
  C   C37       1.0  0.95664  0.92376  0.32746  1.0000
  C   C38       1.0  0.97452  0.90534  0.33478  1.0000
  C   C39       1.0  0.95699  0.86924  0.33285  1.0000
  C   C40       1.0  0.92096  0.85031  0.32242  1.0000
  C   C41       1.0  0.90289  0.86842  0.31560  1.0000
  C   C42       1.0  0.92044  0.90450  0.31827  1.0000
  C   C43       1.0  0.95464  0.03079  0.32747  1.0000
  C   C44       1.0  0.91835  0.01291  0.33480  1.0000
  C   C45       1.0  0.89977  0.03045  0.33286  1.0000
  C   C46       1.0  0.91688  0.06647  0.32242  1.0000
  C   C47       1.0  0.95305  0.08454  0.31560  1.0000
  C   C48       1.0  0.97159  0.06699  0.31829  1.0000
  H   H22       1.0  0.97084  0.85687  0.33762  1.0000
  H   H23       1.0  0.00065  0.91798  0.34179  1.0000
  H   H24       1.0  0.87670  0.85544  0.30935  1.0000
  H   H25       1.0  0.90626  0.91648  0.31275  1.0000
  H   H26       1.0  0.90484  0.98678  0.34181  1.0000
  H   H27       1.0  0.87355  0.01659  0.33764  1.0000
  H   H28       1.0  0.99775  0.08117  0.31275  1.0000
  H   H29       1.0  0.96627  0.11073  0.30935  1.0000
  H   H30       1.0  0.06946  0.08258  0.34178  1.0000
  H   H31       1.0  0.13056  0.11388  0.33761  1.0000
  H   H32       1.0  0.13198  0.02116  0.30934  1.0000
  H   H33       1.0  0.07094  0.98968  0.31274  1.0000
  C   C49       1.0  0.44651  0.19784  0.32492  1.0000
  N   N13       1.0  0.41163  0.18114  0.32747  1.0000
  C   C50       1.0  0.39352  0.19805  0.32783  1.0000
  N   N14       1.0  0.41170  0.23305  0.32619  1.0000
  C   C51       1.0  0.44655  0.25110  0.32332  1.0000
  N   N15       1.0  0.46292  0.23266  0.32309  1.0000
  C   C52       1.0  0.35691  0.17986  0.32880  1.0000
  C   C53       1.0  0.33792  0.14359  0.32109  1.0000
  C   C54       1.0  0.30182  0.12571  0.31918  1.0000
  C   C55       1.0  0.28343  0.14352  0.32544  1.0000
  C   C56       1.0  0.30207  0.17959  0.33478  1.0000
  C   C57       1.0  0.33818  0.19743  0.33598  1.0000
  C   C58       1.0  0.46587  0.18060  0.32713  1.0000
  C   C59       1.0  0.45060  0.14508  0.34688  1.0000
  C   C60       1.0  0.47066  0.12909  0.35503  1.0000
  C   C61       1.0  0.50656  0.14832  0.34301  1.0000
  C   C62       1.0  0.52184  0.18344  0.32074  1.0000
  C   C63       1.0  0.50185  0.19923  0.31292  1.0000
  C   C64       1.0  0.46593  0.28766  0.32347  1.0000
  C   C65       1.0  0.50123  0.30486  0.30059  1.0000
  C   C66       1.0  0.52152  0.34068  0.30695  1.0000
  C   C67       1.0  0.50718  0.36058  0.33670  1.0000
  C   C68       1.0  0.47190  0.34399  0.35775  1.0000
  C   C69       1.0  0.45148  0.30797  0.35026  1.0000
  H   H34       1.0  0.45908  0.10367  0.37199  1.0000
  H   H35       1.0  0.42477  0.13062  0.35839  1.0000
  H   H36       1.0  0.54788  0.19807  0.31183  1.0000
  H   H37       1.0  0.51429  0.22487  0.29807  1.0000
  H   H38       1.0  0.51297  0.29150  0.28052  1.0000
  H   H39       1.0  0.54719  0.35199  0.29259  1.0000
  H   H40       1.0  0.42623  0.29661  0.36882  1.0000
  H   H41       1.0  0.46115  0.35785  0.38128  1.0000
  H   H42       1.0  0.35058  0.22360  0.34179  1.0000
  H   H43       1.0  0.28950  0.19327  0.33883  1.0000
  H   H44       1.0  0.28904  0.09951  0.31337  1.0000
  H   H45       1.0  0.35012  0.12962  0.31553  1.0000
  C   C70       1.0  0.78949  0.24850  0.32496  1.0000
  N   N16       1.0  0.80620  0.23033  0.32747  1.0000
  C   C71       1.0  0.78930  0.19531  0.32781  1.0000
  N   N17       1.0  0.75430  0.17847  0.32618  1.0000
  C   C72       1.0  0.73624  0.19526  0.32332  1.0000
  N   N18       1.0  0.75467  0.23007  0.32313  1.0000
  C   C73       1.0  0.80750  0.17690  0.32877  1.0000
  C   C74       1.0  0.84378  0.19419  0.32103  1.0000
  C   C75       1.0  0.86167  0.17598  0.31915  1.0000
  C   C76       1.0  0.84387  0.13979  0.32540  1.0000
  C   C77       1.0  0.80780  0.12234  0.33472  1.0000
  C   C78       1.0  0.78995  0.14059  0.33594  1.0000
  C   C79       1.0  0.80672  0.28510  0.32720  1.0000
  C   C80       1.0  0.84228  0.30538  0.34647  1.0000
  C   C81       1.0  0.85826  0.34142  0.35460  1.0000
  C   C82       1.0  0.83898  0.35806  0.34311  1.0000
  C   C83       1.0  0.80384  0.33821  0.32116  1.0000
  C   C84       1.0  0.78804  0.30243  0.31339  1.0000
  C   C85       1.0  0.69968  0.17807  0.32348  1.0000
  C   C86       1.0  0.68246  0.19614  0.30046  1.0000
  C   C87       1.0  0.64664  0.18059  0.30679  1.0000
  C   C88       1.0  0.62675  0.14637  0.33673  1.0000
  C   C89       1.0  0.64337  0.12773  0.35804  1.0000
  C   C90       1.0  0.67938  0.14331  0.35044  1.0000
  H   H46       1.0  0.88371  0.35527  0.37127  1.0000
  H   H47       1.0  0.85676  0.29400  0.35775  1.0000
  H   H48       1.0  0.78918  0.34960  0.31245  1.0000
  H   H49       1.0  0.76238  0.28922  0.29877  1.0000
  H   H50       1.0  0.69582  0.22123  0.28028  1.0000
  H   H51       1.0  0.63532  0.19494  0.29239  1.0000
  H   H52       1.0  0.69077  0.12947  0.36916  1.0000
  H   H53       1.0  0.62952  0.10314  0.38168  1.0000
  H   H54       1.0  0.76378  0.12682  0.34176  1.0000
  H   H55       1.0  0.79413  0.09609  0.33880  1.0000
  H   H56       1.0  0.88787  0.18941  0.31335  1.0000
  H   H57       1.0  0.85774  0.22036  0.31551  1.0000
  C   C91       1.0  0.73888  0.54092  0.32497  1.0000
  N   N19       1.0  0.75706  0.57580  0.32752  1.0000
  C   C92       1.0  0.79208  0.59391  0.32789  1.0000
  N   N20       1.0  0.80891  0.57573  0.32625  1.0000
  C   C93       1.0  0.79211  0.54088  0.32339  1.0000
  N   N21       1.0  0.75729  0.52451  0.32315  1.0000
  C   C94       1.0  0.81050  0.63052  0.32885  1.0000
  C   C95       1.0  0.79322  0.64950  0.32113  1.0000
  C   C96       1.0  0.81144  0.68561  0.31922  1.0000
  C   C97       1.0  0.84763  0.70400  0.32546  1.0000
  C   C98       1.0  0.86507  0.68536  0.33482  1.0000
  C   C99       1.0  0.84681  0.64925  0.33602  1.0000
  C   C100      1.0  0.70228  0.52156  0.32718  1.0000
  C   C101      1.0  0.68202  0.53683  0.34689  1.0000
  C   C102      1.0  0.64598  0.51678  0.35502  1.0000
  C   C103      1.0  0.62932  0.48088  0.34302  1.0000
  C   C104      1.0  0.64915  0.46559  0.32078  1.0000
  C   C105      1.0  0.68493  0.48558  0.31297  1.0000
  C   C106      1.0  0.80929  0.52150  0.32353  1.0000
  C   C107      1.0  0.79120  0.48621  0.30061  1.0000
  C   C108      1.0  0.80674  0.46593  0.30696  1.0000
  C   C109      1.0  0.84099  0.48026  0.33666  1.0000
  C   C110      1.0  0.85967  0.51555  0.35774  1.0000
  C   C111      1.0  0.84406  0.53596  0.35034  1.0000
  H   H58       1.0  0.63214  0.52836  0.37197  1.0000
  H   H59       1.0  0.69341  0.56267  0.35839  1.0000
  H   H60       1.0  0.63775  0.43956  0.31187  1.0000
  H   H61       1.0  0.69813  0.47313  0.29814  1.0000
  H   H62       1.0  0.76609  0.47446  0.28059  1.0000
  H   H63       1.0  0.79238  0.44026  0.29258  1.0000
  H   H64       1.0  0.85794  0.56121  0.36883  1.0000
  H   H65       1.0  0.88428  0.52631  0.38122  1.0000
  H   H66       1.0  0.86057  0.63685  0.34184  1.0000
  H   H67       1.0  0.89131  0.69793  0.33886  1.0000
  H   H68       1.0  0.79802  0.69838  0.31340  1.0000
  H   H69       1.0  0.76705  0.63730  0.31557  1.0000
  C   C112      1.0  0.22812  0.12832  0.39349  1.0000
  C   C113      1.0  0.19204  0.11045  0.39251  1.0000
  H   H70       1.0  0.17930  0.11256  0.44656  1.0000
  H   H71       1.0  0.24053  0.14287  0.44821  1.0000
  C   C114      1.0  0.17450  0.06586  0.61461  1.0000
  H   H72       1.0  0.20064  0.08277  0.59086  1.0000
  H   H73       1.0  0.16276  0.08136  0.63147  1.0000
  H   H74       1.0  0.15989  0.04856  0.56020  1.0000
  C   C115      1.0  0.85909  0.09968  0.39348  1.0000
  C   C116      1.0  0.87698  0.08149  0.39253  1.0000
  H   H75       1.0  0.87486  0.06665  0.44656  1.0000
  H   H76       1.0  0.84453  0.09755  0.44819  1.0000
  C   C117      1.0  0.92157  0.10854  0.61459  1.0000
  H   H77       1.0  0.90467  0.11777  0.59082  1.0000
  H   H78       1.0  0.90607  0.08130  0.63143  1.0000
  H   H79       1.0  0.93888  0.11124  0.56020  1.0000
  C   C118      1.0  0.88774  0.75932  0.39351  1.0000
  C   C119      1.0  0.90595  0.79539  0.39252  1.0000
  H   H80       1.0  0.92078  0.80813  0.44658  1.0000
  H   H81       1.0  0.88988  0.74690  0.44824  1.0000
  C   C120      1.0  0.87887  0.81292  0.61459  1.0000
  H   H82       1.0  0.86964  0.78678  0.59085  1.0000
  H   H83       1.0  0.90611  0.82466  0.63143  1.0000
  H   H84       1.0  0.87617  0.82752  0.56021  1.0000
  C   C121      1.0  0.52846  0.13452  0.35651  1.0000
  C   C122      1.0  0.55010  0.14472  0.43233  1.0000
  C   C123      1.0  0.58141  0.14418  0.43066  1.0000
  C   C124      1.0  0.59135  0.13358  0.35279  1.0000
  N   N22       1.0  0.60276  0.15730  0.50220  1.0000
  C   C125      1.0  0.59528  0.17001  0.57536  1.0000
  C   C126      1.0  0.56425  0.17056  0.57784  1.0000
  N   N23       1.0  0.54338  0.15838  0.50534  1.0000
  H   H85       1.0  0.61252  0.17979  0.62655  1.0000
  N   N24       1.0  0.55633  0.18554  0.65028  1.0000
  H   H86       1.0  0.53727  0.19062  0.63217  1.0000
  C   C127      1.0  0.85282  0.39379  0.35624  1.0000
  C   C128      1.0  0.84264  0.40527  0.43206  1.0000
  C   C129      1.0  0.84321  0.43713  0.43036  1.0000
  C   C130      1.0  0.85381  0.45767  0.35246  1.0000
  N   N25       1.0  0.83011  0.44537  0.50193  1.0000
  C   C131      1.0  0.81741  0.42520  0.57514  1.0000
  C   C132      1.0  0.81686  0.39362  0.57767  1.0000
  N   N26       1.0  0.82900  0.38490  0.50514  1.0000
  H   H87       1.0  0.80765  0.43269  0.62631  1.0000
  N   N27       1.0  0.80187  0.37074  0.65013  1.0000
  H   H88       1.0  0.79679  0.34660  0.63204  1.0000
  C   C133      1.0  0.59360  0.45897  0.35649  1.0000
  C   C134      1.0  0.58216  0.43731  0.43226  1.0000
  C   C135      1.0  0.55034  0.40598  0.43046  1.0000
  C   C136      1.0  0.52978  0.39599  0.35257  1.0000
  N   N28       1.0  0.54211  0.38463  0.50201  1.0000
  C   C137      1.0  0.56227  0.39212  0.57524  1.0000
  C   C138      1.0  0.59383  0.42317  0.57781  1.0000
  N   N29       1.0  0.60253  0.44405  0.50532  1.0000
  H   H89       1.0  0.55481  0.37485  0.62636  1.0000
  N   N30       1.0  0.61671  0.43107  0.65027  1.0000
  H   H90       1.0  0.64085  0.45014  0.63221  1.0000
