data_image0
_chemical_formula_structural       HNHNC3OHOHCHC3OHOHCHC2O2H3C2O2H3C3OHOHCHC3OHOHCHC2O2H3C2O2H3C2OHOH2C2OHOH2C6HOC6OH5N4C6HOC6OH5N4C6HOC6OH5N4C6HOC6OH4N3C6HOC6OH4N3C3O2H2CHC3O2H2CHC4OHOHCHC5OHOHCHC4O2H2CHC3O2H2CHC4OHOHCHC5OHOHCHC5O2H2C2HC4O2H2C2H
_chemical_formula_sum              "H90 N20 C140 O50"
_cell_length_a       32.9225
_cell_length_b       41.2044
_cell_length_c       14.8291
_cell_angle_alpha    88.6242
_cell_angle_beta     91.0773
_cell_angle_gamma    89.7167

_space_group_name_H-M_alt    "P 1"
_space_group_IT_number       1

loop_
  _space_group_symop_operation_xyz
  'x, y, z'

loop_
  _atom_site_type_symbol
  _atom_site_label
  _atom_site_symmetry_multiplicity
  _atom_site_fract_x
  _atom_site_fract_y
  _atom_site_fract_z
  _atom_site_occupancy
  H   H1        1.0  0.78070  0.36281  0.41618  1.0000
  N   N1        1.0  0.85144  0.34173  0.37696  1.0000
  H   H2        1.0  0.16051  0.66666  0.41647  1.0000
  N   N2        1.0  0.08919  0.68860  0.37743  1.0000
  C   C1        1.0  0.15904  0.18191  0.36934  1.0000
  C   C2        1.0  0.14611  0.16433  0.29296  1.0000
  C   C3        1.0  0.12522  0.13454  0.30351  1.0000
  O   O1        1.0  0.11167  0.11959  0.22768  1.0000
  H   H3        1.0  0.13376  0.10514  0.20936  1.0000
  O   O2        1.0  0.14921  0.17754  0.20823  1.0000
  H   H4        1.0  0.17453  0.16886  0.18396  1.0000
  C   C4        1.0  0.17692  0.21287  0.35970  1.0000
  H   H5        1.0  0.19039  0.21935  0.30032  1.0000
  C   C5        1.0  0.78115  0.84823  0.36856  1.0000
  C   C6        1.0  0.79346  0.86680  0.29212  1.0000
  C   C7        1.0  0.81457  0.89640  0.30257  1.0000
  O   O3        1.0  0.82743  0.91234  0.22677  1.0000
  H   H6        1.0  0.80521  0.92708  0.20720  1.0000
  O   O4        1.0  0.78948  0.85475  0.20764  1.0000
  H   H7        1.0  0.76400  0.86388  0.18213  1.0000
  C   C8        1.0  0.76281  0.81752  0.35929  1.0000
  H   H8        1.0  0.74867  0.81206  0.29957  1.0000
  C   C9        1.0  0.85456  0.15799  0.29733  1.0000
  C   C10       1.0  0.83000  0.18617  0.29728  1.0000
  O   O5        1.0  0.89198  0.16077  0.25949  1.0000
  O   O6        1.0  0.84525  0.21330  0.25626  1.0000
  H   H9        1.0  0.91112  0.16573  0.30897  1.0000
  H   H10       1.0  0.86887  0.22001  0.29284  1.0000
  H   H11       1.0  0.89524  0.10447  0.30649  1.0000
  C   C11       1.0  0.08556  0.87369  0.29561  1.0000
  C   C12       1.0  0.11022  0.84555  0.29561  1.0000
  O   O7        1.0  0.04789  0.87174  0.25572  1.0000
  O   O8        1.0  0.09489  0.81930  0.25262  1.0000
  H   H12       1.0  0.02910  0.86556  0.30394  1.0000
  H   H13       1.0  0.07118  0.81191  0.28680  1.0000
  H   H14       1.0  0.04457  0.92679  0.30635  1.0000
  C   C13       1.0  0.24752  0.48051  0.34054  1.0000
  C   C14       1.0  0.24605  0.50614  0.27514  1.0000
  C   C15       1.0  0.25144  0.53867  0.30119  1.0000
  O   O9        1.0  0.25021  0.56242  0.23557  1.0000
  H   H15       1.0  0.27815  0.56452  0.21399  1.0000
  O   O10       1.0  0.24375  0.49962  0.18551  1.0000
  H   H16       1.0  0.21496  0.50211  0.16763  1.0000
  C   C16       1.0  0.24174  0.44800  0.31605  1.0000
  H   H17       1.0  0.22645  0.44271  0.25759  1.0000
  C   C17       1.0  0.69254  0.55023  0.34024  1.0000
  C   C18       1.0  0.69254  0.52576  0.27478  1.0000
  C   C19       1.0  0.68748  0.49278  0.30079  1.0000
  O   O11       1.0  0.68727  0.47019  0.23509  1.0000
  H   H18       1.0  0.65888  0.46859  0.21388  1.0000
  O   O12       1.0  0.69306  0.53386  0.18515  1.0000
  H   H19       1.0  0.72145  0.53160  0.16679  1.0000
  C   C20       1.0  0.69796  0.58316  0.31578  1.0000
  H   H20       1.0  0.71211  0.58946  0.25714  1.0000
  C   C21       1.0  0.95933  0.34610  0.29811  1.0000
  C   C22       1.0  0.00071  0.34511  0.32651  1.0000
  O   O13       1.0  0.95138  0.34782  0.20747  1.0000
  O   O14       1.0  0.02940  0.34488  0.26147  1.0000
  H   H21       1.0  0.94617  0.37085  0.19241  1.0000
  H   H22       1.0  0.03633  0.36774  0.24941  1.0000
  H   H23       1.0  0.88262  0.33340  0.26355  1.0000
  C   C23       1.0  0.98003  0.68578  0.29810  1.0000
  C   C24       1.0  0.93909  0.68624  0.32628  1.0000
  O   O15       1.0  0.98651  0.68571  0.20748  1.0000
  O   O16       1.0  0.90935  0.68767  0.26113  1.0000
  H   H24       1.0  0.99147  0.66295  0.19227  1.0000
  H   H25       1.0  0.90226  0.66503  0.24880  1.0000
  H   H26       1.0  0.05618  0.69909  0.26398  1.0000
  C   C25       1.0  0.45560  0.33094  0.28059  1.0000
  C   C26       1.0  0.49775  0.32960  0.30270  1.0000
  O   O17       1.0  0.52458  0.33213  0.23408  1.0000
  H   H27       1.0  0.53059  0.30976  0.21668  1.0000
  O   O18       1.0  0.44480  0.33304  0.19138  1.0000
  H   H28       1.0  0.43864  0.31079  0.17309  1.0000
  H   H29       1.0  0.37857  0.34866  0.26338  1.0000
  C   C27       1.0  0.48333  0.70068  0.28103  1.0000
  C   C28       1.0  0.44155  0.70162  0.30318  1.0000
  O   O19       1.0  0.41353  0.70028  0.23464  1.0000
  H   H30       1.0  0.40721  0.72295  0.21725  1.0000
  O   O20       1.0  0.49257  0.70013  0.19180  1.0000
  H   H31       1.0  0.49841  0.72270  0.17348  1.0000
  H   H32       1.0  0.56006  0.68327  0.26362  1.0000
  C   C29       1.0  0.99189  0.01603  0.33053  1.0000
  C   C30       1.0  0.01636  0.98761  0.34121  1.0000
  C   C31       1.0  0.05909  0.98798  0.35432  1.0000
  C   C32       1.0  0.07842  0.01817  0.36495  1.0000
  C   C33       1.0  0.05626  0.04736  0.34875  1.0000
  C   C34       1.0  0.01437  0.04558  0.32660  1.0000
  H   H33       1.0  0.00287  0.96560  0.34558  1.0000
  O   O21       1.0  0.11949  0.01871  0.37873  1.0000
  C   C35       1.0  0.94802  0.01464  0.33018  1.0000
  C   C36       1.0  0.92548  0.98517  0.32618  1.0000
  C   C37       1.0  0.88388  0.98304  0.34753  1.0000
  C   C38       1.0  0.86196  0.01199  0.36303  1.0000
  C   C39       1.0  0.88116  0.04235  0.35272  1.0000
  C   C40       1.0  0.92372  0.04290  0.34032  1.0000
  O   O22       1.0  0.82107  0.01126  0.37615  1.0000
  H   H34       1.0  0.93731  0.06481  0.34512  1.0000
  H   H35       1.0  0.13165  0.02090  0.31879  1.0000
  H   H36       1.0  0.80808  0.01003  0.31603  1.0000
  H   H37       1.0  0.99997  0.06716  0.31328  1.0000
  H   H38       1.0  0.93970  0.96379  0.31326  1.0000
  N   N3        1.0  0.85740  0.06955  0.35248  1.0000
  N   N4        1.0  0.86719  0.95290  0.35135  1.0000
  N   N5        1.0  0.07301  0.07744  0.35241  1.0000
  N   N6        1.0  0.08289  0.96081  0.35415  1.0000
  C   C41       1.0  0.19812  0.32179  0.36896  1.0000
  C   C42       1.0  0.19729  0.28722  0.37630  1.0000
  C   C43       1.0  0.16261  0.26983  0.40467  1.0000
  C   C44       1.0  0.12692  0.28683  0.42662  1.0000
  C   C45       1.0  0.12352  0.32034  0.40420  1.0000
  C   C46       1.0  0.15877  0.33677  0.37439  1.0000
  H   H39       1.0  0.22245  0.27385  0.36245  1.0000
  O   O23       1.0  0.09328  0.26932  0.44924  1.0000
  C   C47       1.0  0.23563  0.33967  0.35745  1.0000
  C   C48       1.0  0.27550  0.32566  0.37053  1.0000
  C   C49       1.0  0.31221  0.34353  0.36203  1.0000
  C   C50       1.0  0.30901  0.37774  0.35302  1.0000
  C   C51       1.0  0.27084  0.39296  0.34214  1.0000
  C   C52       1.0  0.23544  0.37381  0.33881  1.0000
  O   O24       1.0  0.34272  0.39685  0.35809  1.0000
  H   H40       1.0  0.20888  0.38625  0.33019  1.0000
  H   H41       1.0  0.07927  0.26377  0.39244  1.0000
  H   H42       1.0  0.34903  0.39925  0.42270  1.0000
  H   H43       1.0  0.15511  0.36107  0.36313  1.0000
  H   H44       1.0  0.27871  0.30147  0.38511  1.0000
  N   N7        1.0  0.26957  0.42581  0.34523  1.0000
  N   N8        1.0  0.34975  0.32905  0.37091  1.0000
  N   N9        1.0  0.08676  0.33609  0.40046  1.0000
  N   N10       1.0  0.15878  0.23711  0.40357  1.0000
  C   C53       1.0  0.74232  0.70851  0.36866  1.0000
  C   C54       1.0  0.74321  0.74296  0.37596  1.0000
  C   C55       1.0  0.77835  0.75992  0.40414  1.0000
  C   C56       1.0  0.81446  0.74259  0.42599  1.0000
  C   C57       1.0  0.81753  0.70946  0.40370  1.0000
  C   C58       1.0  0.78179  0.69349  0.37402  1.0000
  H   H45       1.0  0.71777  0.75652  0.36220  1.0000
  O   O25       1.0  0.84846  0.75977  0.44845  1.0000
  C   C59       1.0  0.70465  0.69079  0.35726  1.0000
  C   C60       1.0  0.66499  0.70452  0.37046  1.0000
  C   C61       1.0  0.62816  0.68676  0.36205  1.0000
  C   C62       1.0  0.63124  0.65272  0.35300  1.0000
  C   C63       1.0  0.66924  0.63772  0.34202  1.0000
  C   C64       1.0  0.70456  0.65697  0.33860  1.0000
  O   O26       1.0  0.59766  0.63348  0.35814  1.0000
  H   H46       1.0  0.73099  0.64471  0.32989  1.0000
  H   H47       1.0  0.86146  0.76629  0.39159  1.0000
  H   H48       1.0  0.59249  0.62995  0.42276  1.0000
  H   H49       1.0  0.78529  0.66938  0.36286  1.0000
  H   H50       1.0  0.66198  0.72845  0.38508  1.0000
  N   N11       1.0  0.67062  0.60482  0.34506  1.0000
  N   N12       1.0  0.59076  0.70106  0.37103  1.0000
  N   N13       1.0  0.85425  0.69381  0.40002  1.0000
  N   N14       1.0  0.78202  0.79267  0.40311  1.0000
  C   C65       1.0  0.73903  0.32537  0.37806  1.0000
  C   C66       1.0  0.74106  0.29171  0.35741  1.0000
  C   C67       1.0  0.77789  0.27613  0.33595  1.0000
  C   C68       1.0  0.81375  0.29457  0.32879  1.0000
  C   C69       1.0  0.81514  0.32632  0.36241  1.0000
  C   C70       1.0  0.77813  0.34025  0.39025  1.0000
  H   H51       1.0  0.71572  0.27764  0.35759  1.0000
  O   O27       1.0  0.84918  0.27918  0.31041  1.0000
  C   C71       1.0  0.70081  0.34277  0.38538  1.0000
  C   C72       1.0  0.66128  0.32865  0.37303  1.0000
  C   C73       1.0  0.62420  0.34640  0.37837  1.0000
  C   C74       1.0  0.62660  0.38062  0.38356  1.0000
  C   C75       1.0  0.66442  0.39602  0.39300  1.0000
  C   C76       1.0  0.70017  0.37697  0.39833  1.0000
  O   O28       1.0  0.59252  0.39958  0.37651  1.0000
  H   H52       1.0  0.72643  0.38978  0.40022  1.0000
  H   H53       1.0  0.85076  0.27938  0.24422  1.0000
  H   H54       1.0  0.58611  0.40213  0.31165  1.0000
  H   H55       1.0  0.65851  0.30432  0.36431  1.0000
  N   N15       1.0  0.66540  0.42893  0.38753  1.0000
  N   N16       1.0  0.58710  0.33155  0.37143  1.0000
  N   N17       1.0  0.78313  0.24366  0.32945  1.0000
  C   C77       1.0  0.20166  0.70475  0.37901  1.0000
  C   C78       1.0  0.19937  0.73880  0.35867  1.0000
  C   C79       1.0  0.16225  0.75484  0.33726  1.0000
  C   C80       1.0  0.12619  0.73663  0.32999  1.0000
  C   C81       1.0  0.12528  0.70423  0.36319  1.0000
  C   C82       1.0  0.16271  0.68971  0.39091  1.0000
  H   H56       1.0  0.22476  0.75281  0.35895  1.0000
  O   O29       1.0  0.09050  0.75246  0.31198  1.0000
  C   C83       1.0  0.23996  0.68717  0.38625  1.0000
  C   C84       1.0  0.27931  0.70145  0.37389  1.0000
  C   C85       1.0  0.31645  0.68356  0.37917  1.0000
  C   C86       1.0  0.31407  0.64926  0.38436  1.0000
  C   C87       1.0  0.27639  0.63374  0.39380  1.0000
  C   C88       1.0  0.24076  0.65273  0.39917  1.0000
  O   O30       1.0  0.34800  0.63038  0.37727  1.0000
  H   H57       1.0  0.21451  0.63993  0.40115  1.0000
  H   H58       1.0  0.08760  0.75330  0.24582  1.0000
  H   H59       1.0  0.35329  0.62895  0.31241  1.0000
  H   H60       1.0  0.28199  0.72593  0.36514  1.0000
  N   N18       1.0  0.27523  0.60092  0.38823  1.0000
  N   N19       1.0  0.35345  0.69850  0.37218  1.0000
  N   N20       1.0  0.15704  0.78742  0.33058  1.0000
  C   C89       1.0  0.12143  0.11955  0.39013  1.0000
  C   C90       1.0  0.13711  0.13613  0.46590  1.0000
  C   C91       1.0  0.15254  0.16798  0.45621  1.0000
  O   O31       1.0  0.13317  0.12345  0.55105  1.0000
  O   O32       1.0  0.16579  0.18333  0.53166  1.0000
  H   H61       1.0  0.15938  0.11307  0.56700  1.0000
  H   H62       1.0  0.14155  0.19296  0.55841  1.0000
  C   C92       1.0  0.10536  0.08799  0.40108  1.0000
  H   H63       1.0  0.11260  0.07481  0.45857  1.0000
  C   C93       1.0  0.81922  0.91021  0.38893  1.0000
  C   C94       1.0  0.80424  0.89262  0.46463  1.0000
  C   C95       1.0  0.78852  0.86097  0.45530  1.0000
  O   O33       1.0  0.80900  0.90417  0.54958  1.0000
  O   O34       1.0  0.77591  0.84463  0.53072  1.0000
  H   H64       1.0  0.78297  0.91438  0.56425  1.0000
  H   H65       1.0  0.80034  0.83449  0.55853  1.0000
  C   C96       1.0  0.83548  0.94160  0.39960  1.0000
  H   H66       1.0  0.82891  0.95397  0.45659  1.0000
  C   C97       1.0  0.78995  0.18553  0.33166  1.0000
  C   C98       1.0  0.77534  0.15504  0.36387  1.0000
  C   C99       1.0  0.80003  0.12669  0.36407  1.0000
  C   C100      1.0  0.84026  0.12778  0.33139  1.0000
  O   O35       1.0  0.78396  0.09837  0.39608  1.0000
  H   H67       1.0  0.79057  0.09725  0.46105  1.0000
  O   O36       1.0  0.73706  0.15228  0.39670  1.0000
  H   H68       1.0  0.73942  0.15584  0.46195  1.0000
  C   C101      1.0  0.76585  0.21413  0.33737  1.0000
  H   H69       1.0  0.73692  0.21305  0.36101  1.0000
  C   C102      1.0  0.86684  0.10068  0.33073  1.0000
  C   C103      1.0  0.15050  0.84551  0.33204  1.0000
  C   C104      1.0  0.16547  0.87540  0.36489  1.0000
  C   C105      1.0  0.14045  0.90352  0.36649  1.0000
  C   C106      1.0  0.09996  0.90310  0.33194  1.0000
  O   O37       1.0  0.15648  0.93103  0.40149  1.0000
  H   H70       1.0  0.15051  0.93024  0.46624  1.0000
  O   O38       1.0  0.20353  0.87723  0.40215  1.0000
  H   H71       1.0  0.22148  0.88383  0.35280  1.0000
  C   C107      1.0  0.17458  0.81676  0.33868  1.0000
  H   H72       1.0  0.20376  0.81737  0.36332  1.0000
  C   C108      1.0  0.07322  0.93011  0.33159  1.0000
  C   C109      1.0  0.25083  0.54662  0.39373  1.0000
  C   C110      1.0  0.24904  0.52109  0.45918  1.0000
  C   C111      1.0  0.25124  0.48835  0.43298  1.0000
  O   O39       1.0  0.24960  0.52762  0.54889  1.0000
  O   O40       1.0  0.25002  0.46472  0.49882  1.0000
  H   H73       1.0  0.22121  0.52657  0.56812  1.0000
  H   H74       1.0  0.27829  0.46121  0.51950  1.0000
  C   C112      1.0  0.24774  0.57928  0.41888  1.0000
  H   H75       1.0  0.23391  0.58497  0.47772  1.0000
  C   C113      1.0  0.68997  0.48319  0.39329  1.0000
  C   C114      1.0  0.69322  0.50756  0.45876  1.0000
  C   C115      1.0  0.69067  0.54076  0.43270  1.0000
  O   O41       1.0  0.69445  0.49943  0.54844  1.0000
  O   O42       1.0  0.69333  0.56323  0.49857  1.0000
  H   H76       1.0  0.72323  0.50010  0.56725  1.0000
  H   H77       1.0  0.66549  0.56645  0.51968  1.0000
  C   C116      1.0  0.69332  0.45007  0.41839  1.0000
  H   H78       1.0  0.70850  0.44340  0.47684  1.0000
  C   C117      1.0  0.01160  0.33902  0.41842  1.0000
  C   C118      1.0  0.97941  0.33748  0.48117  1.0000
  C   C119      1.0  0.93815  0.34178  0.45364  1.0000
  C   C120      1.0  0.92712  0.34392  0.36077  1.0000
  O   O43       1.0  0.90929  0.33828  0.51771  1.0000
  H   H79       1.0  0.90388  0.36023  0.53929  1.0000
  O   O44       1.0  0.98765  0.33266  0.57102  1.0000
  H   H80       1.0  0.98425  0.30929  0.58363  1.0000
  C   C121      1.0  0.05191  0.33051  0.44639  1.0000
  H   H81       1.0  0.05548  0.31837  0.50701  1.0000
  C   C122      1.0  0.88643  0.33980  0.32940  1.0000
  C   C123      1.0  0.92971  0.69066  0.41821  1.0000
  C   C124      1.0  0.96290  0.69101  0.48114  1.0000
  C   C125      1.0  0.00370  0.68722  0.45375  1.0000
  C   C126      1.0  0.01325  0.68678  0.36093  1.0000
  O   O45       1.0  0.03363  0.68947  0.51793  1.0000
  H   H82       1.0  0.03928  0.66712  0.53942  1.0000
  O   O46       1.0  0.95611  0.69415  0.57100  1.0000
  H   H83       1.0  0.95974  0.71728  0.58386  1.0000
  C   C127      1.0  0.88984  0.69863  0.44604  1.0000
  H   H84       1.0  0.88725  0.70970  0.50669  1.0000
  C   C128      1.0  0.05343  0.69148  0.32974  1.0000
  C   C129      1.0  0.42537  0.33089  0.34816  1.0000
  C   C130      1.0  0.51147  0.33200  0.39348  1.0000
  C   C131      1.0  0.48125  0.33152  0.46105  1.0000
  C   C132      1.0  0.43919  0.32905  0.43927  1.0000
  O   O47       1.0  0.49195  0.33406  0.54989  1.0000
  O   O48       1.0  0.41231  0.33113  0.50764  1.0000
  H   H85       1.0  0.49927  0.31202  0.57155  1.0000
  H   H86       1.0  0.40729  0.30867  0.52824  1.0000
  C   C133      1.0  0.38392  0.33712  0.32445  1.0000
  C   C134      1.0  0.55256  0.33931  0.41619  1.0000
  H   H87       1.0  0.55735  0.35109  0.47547  1.0000
  C   C135      1.0  0.51475  0.69960  0.34851  1.0000
  C   C136      1.0  0.42945  0.69765  0.39402  1.0000
  C   C137      1.0  0.46085  0.69697  0.46153  1.0000
  C   C138      1.0  0.50252  0.69984  0.43965  1.0000
  O   O49       1.0  0.45170  0.69288  0.55039  1.0000
  O   O50       1.0  0.53060  0.69659  0.50796  1.0000
  H   H88       1.0  0.44476  0.71455  0.57206  1.0000
  H   H89       1.0  0.53597  0.71869  0.52851  1.0000
  C   C139      1.0  0.55578  0.69377  0.32468  1.0000
  C   C140      1.0  0.38876  0.68993  0.41682  1.0000
  H   H90       1.0  0.38501  0.67711  0.47611  1.0000
