data_image0
_chemical_formula_structural       C3NC3NC5NC4NC35H25C3H2C4HNO2C4H2C4HNO2C18H17C5H3NO2C4H3NO2
_chemical_formula_sum              "C92 N8 H54 O8"
_cell_length_a       34.2328
_cell_length_b       34.2326
_cell_length_c       14.8455
_cell_angle_alpha    90
_cell_angle_beta     90
_cell_angle_gamma    90.0626

_space_group_name_H-M_alt    "P 1"
_space_group_IT_number       1

loop_
  _space_group_symop_operation_xyz
  'x, y, z'

loop_
  _atom_site_type_symbol
  _atom_site_label
  _atom_site_symmetry_multiplicity
  _atom_site_fract_x
  _atom_site_fract_y
  _atom_site_fract_z
  _atom_site_occupancy
  C   C1        1.0  0.10856  0.07844  0.34454  1.0000
  C   C2        1.0  0.08005  0.10693  0.34413  1.0000
  C   C3        1.0  0.04358  0.08855  0.34262  1.0000
  N   N1        1.0  0.05140  0.04970  0.34141  1.0000
  C   C4        1.0  0.09026  0.04192  0.34236  1.0000
  C   C5        1.0  0.11003  0.00532  0.34214  1.0000
  C   C6        1.0  0.09114  0.96831  0.34209  1.0000
  N   N2        1.0  0.05236  0.96073  0.34217  1.0000
  C   C7        1.0  0.04475  0.92195  0.34227  1.0000
  C   C8        1.0  0.08110  0.90344  0.34269  1.0000
  C   C9        1.0  0.10963  0.93195  0.34167  1.0000
  C   C10       1.0  0.00773  0.90309  0.34225  1.0000
  C   C11       1.0  0.97115  0.92289  0.34200  1.0000
  N   N3        1.0  0.96340  0.96175  0.34308  1.0000
  C   C12       1.0  0.92456  0.96959  0.34184  1.0000
  C   C13       1.0  0.90616  0.93313  0.34014  1.0000
  C   C14       1.0  0.93462  0.90461  0.33962  1.0000
  C   C15       1.0  0.90483  0.00619  0.34228  1.0000
  N   N4        1.0  0.96240  0.05074  0.34233  1.0000
  C   C16       1.0  0.96996  0.08951  0.34215  1.0000
  C   C17       1.0  0.93363  0.10806  0.34247  1.0000
  C   C18       1.0  0.90509  0.07954  0.34242  1.0000
  C   C19       1.0  0.00699  0.10829  0.34231  1.0000
  C   C20       1.0  0.00731  0.14997  0.34246  1.0000
  C   C21       1.0  0.00314  0.17101  0.26127  1.0000
  C   C22       1.0  0.00303  0.21214  0.26162  1.0000
  C   C23       1.0  0.00704  0.23361  0.34281  1.0000
  C   C24       1.0  0.00675  0.27555  0.34300  1.0000
  C   C25       1.0  0.98093  0.33808  0.28650  1.0000
  C   C26       1.0  0.98114  0.29695  0.28657  1.0000
  C   C27       1.0  0.86315  0.00584  0.34204  1.0000
  C   C28       1.0  0.84224  0.00138  0.26072  1.0000
  C   C29       1.0  0.80112  0.00101  0.26076  1.0000
  C   C30       1.0  0.77952  0.00511  0.34175  1.0000
  C   C31       1.0  0.73758  0.00477  0.34163  1.0000
  C   C32       1.0  0.71623  0.97899  0.28539  1.0000
  C   C33       1.0  0.67510  0.97875  0.28504  1.0000
  C   C34       1.0  0.65347  0.00411  0.34143  1.0000
  C   C35       1.0  0.00734  0.86134  0.34217  1.0000
  C   C36       1.0  0.00673  0.77781  0.34231  1.0000
  C   C37       1.0  0.01638  0.79908  0.26351  1.0000
  C   C38       1.0  0.01639  0.84020  0.26315  1.0000
  C   C39       1.0  0.00652  0.73604  0.34245  1.0000
  C   C40       1.0  0.03763  0.71452  0.30400  1.0000
  C   C41       1.0  0.03756  0.67339  0.30469  1.0000
  C   C42       1.0  0.00615  0.65215  0.34285  1.0000
  C   C43       1.0  0.15179  0.00565  0.34225  1.0000
  C   C44       1.0  0.17279  0.01468  0.26300  1.0000
  C   C45       1.0  0.21392  0.01479  0.26303  1.0000
  C   C46       1.0  0.23532  0.00534  0.34174  1.0000
  C   C47       1.0  0.27711  0.00502  0.34139  1.0000
  C   C48       1.0  0.36101  0.00442  0.34089  1.0000
  C   C49       1.0  0.33984  0.03574  0.30234  1.0000
  C   C50       1.0  0.29870  0.03591  0.30205  1.0000
  H   H1        1.0  0.35423  0.05858  0.27267  1.0000
  H   H2        1.0  0.28463  0.05932  0.27412  1.0000
  H   H3        1.0  0.22813  0.02099  0.20410  1.0000
  H   H4        1.0  0.15826  0.02117  0.20466  1.0000
  H   H5        1.0  0.13786  0.08407  0.34650  1.0000
  H   H6        1.0  0.08559  0.13626  0.34546  1.0000
  H   H7        1.0  0.03159  0.02989  0.33934  1.0000
  H   H8        1.0  0.98323  0.98155  0.34538  1.0000
  H   H9        1.0  0.13896  0.92649  0.34117  1.0000
  H   H10       1.0  0.08654  0.87410  0.34325  1.0000
  H   H11       1.0  0.02317  0.85465  0.20483  1.0000
  H   H12       1.0  0.02272  0.78477  0.20480  1.0000
  H   H13       1.0  0.92897  0.87532  0.33753  1.0000
  H   H14       1.0  0.87682  0.92759  0.33876  1.0000
  H   H15       1.0  0.87574  0.08491  0.34228  1.0000
  H   H16       1.0  0.85683  0.99854  0.20090  1.0000
  H   H17       1.0  0.78708  0.99848  0.20022  1.0000
  H   H18       1.0  0.66104  0.95911  0.24441  1.0000
  H   H19       1.0  0.73046  0.95939  0.24508  1.0000
  H   H20       1.0  0.96160  0.28275  0.24597  1.0000
  H   H21       1.0  0.96140  0.35216  0.24569  1.0000
  H   H22       1.0  0.00064  0.22626  0.20117  1.0000
  H   H23       1.0  0.00024  0.15652  0.20132  1.0000
  H   H24       1.0  0.06109  0.72866  0.27631  1.0000
  H   H25       1.0  0.06053  0.65905  0.27557  1.0000
  C   C51       1.0  0.00576  0.52680  0.34342  1.0000
  C   C52       1.0  0.97228  0.54790  0.31661  1.0000
  C   C53       1.0  0.97237  0.58904  0.31693  1.0000
  H   H26       1.0  0.94751  0.53345  0.29703  1.0000
  H   H27       1.0  0.94774  0.60333  0.29609  1.0000
  C   C54       1.0  0.00570  0.48515  0.34340  1.0000
  C   C55       1.0  0.00596  0.40150  0.34334  1.0000
  C   C56       1.0  0.00528  0.42290  0.26191  1.0000
  C   C57       1.0  0.00523  0.46426  0.26072  1.0000
  H   H28       1.0  0.00570  0.40830  0.20175  1.0000
  N   N5        1.0  0.00558  0.48500  0.17804  1.0000
  O   O1        1.0  0.03558  0.47738  0.13257  1.0000
  O   O2        1.0  0.97592  0.47736  0.13131  1.0000
  C   C58       1.0  0.40279  0.00419  0.34089  1.0000
  C   C59       1.0  0.48635  0.00378  0.34099  1.0000
  C   C60       1.0  0.46509  0.97028  0.31470  1.0000
  C   C61       1.0  0.42395  0.97045  0.31513  1.0000
  H   H29       1.0  0.47943  0.94542  0.29549  1.0000
  H   H30       1.0  0.40955  0.94578  0.29474  1.0000
  C   C62       1.0  0.52799  0.00362  0.34108  1.0000
  C   C63       1.0  0.61164  0.00383  0.34130  1.0000
  C   C64       1.0  0.59030  0.00302  0.25980  1.0000
  C   C65       1.0  0.54894  0.00299  0.25848  1.0000
  H   H31       1.0  0.60494  0.00333  0.19969  1.0000
  N   N6        1.0  0.52825  0.00323  0.17573  1.0000
  O   O3        1.0  0.53599  0.03316  0.13003  1.0000
  O   O4        1.0  0.53582  0.97349  0.12927  1.0000
  C   C66       1.0  0.92362  0.04320  0.34258  1.0000
  C   C67       1.0  0.01127  0.21205  0.42381  1.0000
  C   C68       1.0  0.01137  0.17092  0.42383  1.0000
  C   C69       1.0  0.03206  0.29726  0.39962  1.0000
  C   C70       1.0  0.03172  0.33840  0.39997  1.0000
  C   C71       1.0  0.00619  0.35967  0.34330  1.0000
  C   C72       1.0  0.80095  0.00958  0.42288  1.0000
  C   C73       1.0  0.84207  0.00994  0.42320  1.0000
  C   C74       1.0  0.67470  0.02981  0.39788  1.0000
  C   C75       1.0  0.71583  0.03020  0.39777  1.0000
  C   C76       1.0  0.99793  0.84037  0.42123  1.0000
  C   C77       1.0  0.99735  0.79924  0.42102  1.0000
  C   C78       1.0  0.97492  0.67366  0.38078  1.0000
  C   C79       1.0  0.97522  0.71479  0.38110  1.0000
  C   C80       1.0  0.17289  0.99657  0.42130  1.0000
  C   C81       1.0  0.21402  0.99615  0.42077  1.0000
  C   C82       1.0  0.29829  0.97379  0.38036  1.0000
  C   C83       1.0  0.33942  0.97338  0.37958  1.0000
  H   H32       1.0  0.35351  0.95037  0.40920  1.0000
  H   H33       1.0  0.28390  0.95061  0.40854  1.0000
  H   H34       1.0  0.22830  0.98974  0.47947  1.0000
  H   H35       1.0  0.15843  0.98999  0.47971  1.0000
  H   H36       1.0  0.99139  0.85493  0.47953  1.0000
  H   H37       1.0  0.99083  0.78505  0.47979  1.0000
  H   H38       1.0  0.92827  0.13741  0.34265  1.0000
  H   H39       1.0  0.85653  0.01304  0.48312  1.0000
  H   H40       1.0  0.78680  0.01188  0.48332  1.0000
  H   H41       1.0  0.72976  0.05006  0.43806  1.0000
  H   H42       1.0  0.66035  0.04926  0.43840  1.0000
  H   H43       1.0  0.01417  0.15635  0.48370  1.0000
  H   H44       1.0  0.01344  0.22610  0.48440  1.0000
  H   H45       1.0  0.05107  0.35272  0.44087  1.0000
  H   H46       1.0  0.05178  0.28331  0.44015  1.0000
  H   H47       1.0  0.95189  0.72913  0.40865  1.0000
  H   H48       1.0  0.95183  0.65952  0.41004  1.0000
  C   C84       1.0  0.00600  0.61036  0.34312  1.0000
  C   C85       1.0  0.03949  0.58896  0.36952  1.0000
  C   C86       1.0  0.03934  0.54782  0.37011  1.0000
  C   C87       1.0  0.00625  0.46424  0.42604  1.0000
  C   C88       1.0  0.00646  0.42287  0.42479  1.0000
  H   H49       1.0  0.00614  0.40826  0.48494  1.0000
  H   H50       1.0  0.06422  0.60317  0.39017  1.0000
  H   H51       1.0  0.06405  0.53331  0.38969  1.0000
  N   N7        1.0  0.00575  0.48496  0.50875  1.0000
  O   O5        1.0  0.03542  0.47754  0.55556  1.0000
  O   O6        1.0  0.97576  0.47710  0.55412  1.0000
  C   C89       1.0  0.42435  0.03771  0.36672  1.0000
  C   C90       1.0  0.46548  0.03749  0.36722  1.0000
  C   C91       1.0  0.54885  0.00427  0.42379  1.0000
  C   C92       1.0  0.59022  0.00445  0.42268  1.0000
  H   H52       1.0  0.60480  0.00423  0.48287  1.0000
  H   H53       1.0  0.41024  0.06253  0.38708  1.0000
  H   H54       1.0  0.48010  0.06221  0.38646  1.0000
  N   N8        1.0  0.52809  0.00391  0.50643  1.0000
  O   O7        1.0  0.53557  0.03364  0.55304  1.0000
  O   O8        1.0  0.53583  0.97398  0.55206  1.0000
