data_image0
_chemical_formula_structural       NHC6H6N2C6H6N2C2H2C3HNH2CHC2H2C3HNH2CHC2H2C3H3CHC12H5CNC2NHN2C12H5CNC2NHN2C7H3NH2CHC7H3NH2CHC7H3NHCH
_chemical_formula_sum              "N18 H60 C84"
_cell_length_a       44.0938
_cell_length_b       44.0938
_cell_length_c       14.9889
_cell_angle_alpha    90
_cell_angle_beta     90
_cell_angle_gamma    120

_space_group_name_H-M_alt    "P 1"
_space_group_IT_number       1

loop_
  _space_group_symop_operation_xyz
  'x, y, z'

loop_
  _atom_site_type_symbol
  _atom_site_label
  _atom_site_symmetry_multiplicity
  _atom_site_fract_x
  _atom_site_fract_y
  _atom_site_fract_z
  _atom_site_occupancy
  N   N1        1.0  0.01114  0.56830  0.28805  1.0000
  H   H1        1.0  0.01016  0.51953  0.51124  1.0000
  C   C1        1.0  0.37248  0.74052  0.33718  1.0000
  C   C2        1.0  0.20532  0.63349  0.32921  1.0000
  C   C3        1.0  0.24214  0.65092  0.33046  1.0000
  C   C4        1.0  0.35572  0.76076  0.34344  1.0000
  C   C5        1.0  0.37510  0.79760  0.34283  1.0000
  C   C6        1.0  0.41185  0.81547  0.33446  1.0000
  H   H2        1.0  0.19318  0.64805  0.32557  1.0000
  H   H3        1.0  0.25541  0.67766  0.32636  1.0000
  H   H4        1.0  0.32908  0.74895  0.34912  1.0000
  H   H5        1.0  0.36209  0.81133  0.34780  1.0000
  H   H6        1.0  0.35288  0.54532  0.32549  1.0000
  H   H7        1.0  0.32326  0.57793  0.32630  1.0000
  N   N2        1.0  0.31725  0.68544  0.33772  1.0000
  N   N3        1.0  0.42868  0.85029  0.33583  1.0000
  C   C7        1.0  0.63124  0.26023  0.33115  1.0000
  C   C8        1.0  0.79710  0.37289  0.34671  1.0000
  C   C9        1.0  0.76026  0.35406  0.34510  1.0000
  C   C10       1.0  0.64910  0.24133  0.31772  1.0000
  C   C11       1.0  0.63107  0.20448  0.31832  1.0000
  C   C12       1.0  0.59472  0.18532  0.33422  1.0000
  H   H8        1.0  0.81031  0.35959  0.35624  1.0000
  H   H9        1.0  0.74795  0.32757  0.35492  1.0000
  H   H10       1.0  0.67551  0.25415  0.30645  1.0000
  H   H11       1.0  0.64480  0.19171  0.30809  1.0000
  H   H12       1.0  0.64133  0.45091  0.35632  1.0000
  H   H13       1.0  0.67336  0.42056  0.35495  1.0000
  N   N4        1.0  0.68511  0.31653  0.33060  1.0000
  N   N5        1.0  0.57907  0.15058  0.33333  1.0000
  C   C13       1.0  0.52023  0.47985  0.27482  1.0000
  C   C14       1.0  0.54339  0.46688  0.28402  1.0000
  H   H14       1.0  0.51481  0.48504  0.21206  1.0000
  H   H15       1.0  0.55433  0.46312  0.22785  1.0000
  C   C15       1.0  0.43805  0.52915  0.31268  1.0000
  C   C16       1.0  0.42563  0.49336  0.29400  1.0000
  C   C17       1.0  0.44676  0.47780  0.30567  1.0000
  H   H16       1.0  0.40036  0.47800  0.27237  1.0000
  N   N6        1.0  0.43263  0.44303  0.28805  1.0000
  H   H17       1.0  0.44574  0.43094  0.29672  1.0000
  H   H18       1.0  0.40858  0.42891  0.26744  1.0000
  C   C18       1.0  0.41588  0.54286  0.30139  1.0000
  H   H19       1.0  0.39404  0.52922  0.26606  1.0000
  C   C19       1.0  0.52108  0.04058  0.27484  1.0000
  C   C20       1.0  0.53409  0.07671  0.28406  1.0000
  H   H20       1.0  0.51590  0.02998  0.21207  1.0000
  H   H21       1.0  0.53785  0.09141  0.22792  1.0000
  C   C21       1.0  0.47175  0.90908  0.31269  1.0000
  C   C22       1.0  0.50754  0.93245  0.29399  1.0000
  C   C23       1.0  0.52310  0.96913  0.30565  1.0000
  H   H22       1.0  0.52291  0.92254  0.27239  1.0000
  N   N7        1.0  0.55789  0.98978  0.28806  1.0000
  H   H23       1.0  0.56997  0.01497  0.29673  1.0000
  H   H24       1.0  0.57200  0.97984  0.26746  1.0000
  C   C24       1.0  0.45806  0.87320  0.30145  1.0000
  H   H25       1.0  0.47169  0.86499  0.26613  1.0000
  C   C25       1.0  0.96036  0.48069  0.27480  1.0000
  C   C26       1.0  0.92423  0.45754  0.28398  1.0000
  H   H26       1.0  0.97098  0.48612  0.21204  1.0000
  H   H27       1.0  0.90954  0.44660  0.22781  1.0000
  C   C27       1.0  0.09184  0.56288  0.31272  1.0000
  C   C28       1.0  0.06847  0.57529  0.29402  1.0000
  C   C29       1.0  0.03179  0.55417  0.30567  1.0000
  H   H28       1.0  0.07837  0.60057  0.27239  1.0000
  H   H29       1.0  0.98594  0.55519  0.29671  1.0000
  H   H30       1.0  0.02107  0.59235  0.26744  1.0000
  C   C30       1.0  0.12772  0.58505  0.30144  1.0000
  H   H31       1.0  0.13593  0.60690  0.26613  1.0000
  C   C31       1.0  0.26040  0.63215  0.33714  1.0000
  C   C32       1.0  0.36877  0.62844  0.33712  1.0000
  C   C33       1.0  0.24016  0.59515  0.34339  1.0000
  C   C34       1.0  0.20332  0.57769  0.34276  1.0000
  C   C35       1.0  0.18545  0.59657  0.33437  1.0000
  C   C36       1.0  0.42890  0.79560  0.32924  1.0000
  C   C37       1.0  0.40952  0.75878  0.33049  1.0000
  C   C38       1.0  0.40577  0.64520  0.34338  1.0000
  C   C39       1.0  0.42323  0.62581  0.34274  1.0000
  C   C40       1.0  0.40435  0.58906  0.33429  1.0000
  C   C41       1.0  0.36743  0.57202  0.32916  1.0000
  C   C42       1.0  0.35000  0.59140  0.33041  1.0000
  H   H32       1.0  0.18959  0.55095  0.34774  1.0000
  H   H33       1.0  0.42299  0.74552  0.32638  1.0000
  H   H34       1.0  0.45560  0.80774  0.32563  1.0000
  H   H35       1.0  0.42060  0.67183  0.34913  1.0000
  H   H36       1.0  0.44997  0.63882  0.34774  1.0000
  C   C43       1.0  0.35104  0.64806  0.33776  1.0000
  N   N8        1.0  0.36893  0.68367  0.33771  1.0000
  C   C44       1.0  0.35286  0.70317  0.33779  1.0000
  C   C45       1.0  0.29776  0.64988  0.33777  1.0000
  N   N9        1.0  0.31548  0.63199  0.33770  1.0000
  H   H37       1.0  0.25197  0.58032  0.34910  1.0000
  N   N10       1.0  0.42235  0.57224  0.33573  1.0000
  N   N11       1.0  0.15063  0.57858  0.33577  1.0000
  C   C46       1.0  0.74070  0.37119  0.33116  1.0000
  C   C47       1.0  0.62973  0.36969  0.33119  1.0000
  C   C48       1.0  0.75961  0.40795  0.31774  1.0000
  C   C49       1.0  0.79646  0.42676  0.31828  1.0000
  C   C50       1.0  0.81561  0.40957  0.33417  1.0000
  C   C51       1.0  0.57655  0.20382  0.34675  1.0000
  C   C52       1.0  0.59455  0.24066  0.34512  1.0000
  C   C53       1.0  0.59298  0.35185  0.31778  1.0000
  C   C54       1.0  0.57417  0.36989  0.31833  1.0000
  C   C55       1.0  0.59136  0.40623  0.33429  1.0000
  C   C56       1.0  0.62803  0.42439  0.34676  1.0000
  C   C57       1.0  0.64686  0.40639  0.34516  1.0000
  H   H38       1.0  0.80924  0.45326  0.30804  1.0000
  H   H39       1.0  0.58037  0.25297  0.35493  1.0000
  H   H40       1.0  0.55004  0.19060  0.35630  1.0000
  H   H41       1.0  0.57937  0.32543  0.30647  1.0000
  H   H42       1.0  0.54766  0.35616  0.30811  1.0000
  C   C58       1.0  0.64879  0.35140  0.33056  1.0000
  N   N12       1.0  0.63215  0.31581  0.33062  1.0000
  C   C59       1.0  0.64953  0.29758  0.33054  1.0000
  C   C60       1.0  0.70335  0.35214  0.33055  1.0000
  N   N13       1.0  0.68440  0.36878  0.33063  1.0000
  H   H43       1.0  0.74680  0.42156  0.30646  1.0000
  N   N14       1.0  0.57230  0.42191  0.33327  1.0000
  N   N15       1.0  0.85035  0.42862  0.33319  1.0000
  C   C61       1.0  0.55188  0.45975  0.36934  1.0000
  C   C62       1.0  0.53668  0.46597  0.44506  1.0000
  C   C63       1.0  0.51289  0.47861  0.43732  1.0000
  C   C64       1.0  0.50477  0.48574  0.35057  1.0000
  C   C65       1.0  0.48173  0.49911  0.33664  1.0000
  C   C66       1.0  0.49447  0.53494  0.35452  1.0000
  C   C67       1.0  0.47296  0.54972  0.34287  1.0000
  H   H44       1.0  0.51960  0.55066  0.37654  1.0000
  H   H45       1.0  0.48319  0.57577  0.35666  1.0000
  H   H46       1.0  0.54268  0.46077  0.50721  1.0000
  N   N16       1.0  0.49846  0.48304  0.51298  1.0000
  H   H47       1.0  0.50416  0.47770  0.57152  1.0000
  H   H48       1.0  0.48139  0.49083  0.51124  1.0000
  C   C68       1.0  0.57529  0.44778  0.37972  1.0000
  H   H49       1.0  0.59344  0.45832  0.42718  1.0000
  C   C69       1.0  0.54121  0.09232  0.36941  1.0000
  C   C70       1.0  0.53496  0.07088  0.44511  1.0000
  C   C71       1.0  0.52231  0.03446  0.43733  1.0000
  C   C72       1.0  0.51517  0.01921  0.35057  1.0000
  C   C73       1.0  0.50180  0.98281  0.33662  1.0000
  C   C74       1.0  0.46596  0.95971  0.35448  1.0000
  C   C75       1.0  0.45119  0.92342  0.34286  1.0000
  H   H50       1.0  0.45025  0.96914  0.37652  1.0000
  H   H51       1.0  0.42514  0.90761  0.35666  1.0000
  H   H52       1.0  0.54016  0.08207  0.50726  1.0000
  N   N17       1.0  0.51785  0.01557  0.51299  1.0000
  H   H53       1.0  0.52319  0.02661  0.57153  1.0000
  H   H54       1.0  0.51005  0.99072  0.51122  1.0000
  C   C76       1.0  0.55322  0.12770  0.37984  1.0000
  H   H55       1.0  0.54260  0.13531  0.42711  1.0000
  C   C77       1.0  0.90860  0.44904  0.36929  1.0000
  C   C78       1.0  0.93002  0.46424  0.44502  1.0000
  C   C79       1.0  0.96644  0.48803  0.43730  1.0000
  C   C80       1.0  0.98171  0.49616  0.35055  1.0000
  C   C81       1.0  0.01812  0.51920  0.33665  1.0000
  C   C82       1.0  0.04121  0.50646  0.35453  1.0000
  C   C83       1.0  0.07750  0.52797  0.34290  1.0000
  H   H56       1.0  0.03179  0.48132  0.37656  1.0000
  H   H57       1.0  0.09331  0.51773  0.35670  1.0000
  H   H58       1.0  0.91882  0.45824  0.50716  1.0000
  N   N18       1.0  0.98531  0.50247  0.51297  1.0000
  H   H59       1.0  0.97427  0.49676  0.57150  1.0000
  C   C84       1.0  0.87323  0.42564  0.37965  1.0000
  H   H60       1.0  0.86561  0.40748  0.42711  1.0000
