data_image0
_chemical_formula_structural       C3NC3NC5NC5NC20H18N4C3NC3NC5NC5NC20H18N4C3NC3NC5NC5NC20H18N4C3HNO2CHC3HNO2CHC3HNO2CHC3HNO2CHC3HNO2CHC3HNO2CHC8H8C8H8C8H8C3HNO2CHC3HNO2CHC3HNO2CHC3HNO2CHC3HNO2CHC3HNO2CH
_chemical_formula_sum              "C180 N36 H102 O24"
_cell_length_a       50.6306
_cell_length_b       50.6306
_cell_length_c       14.8318
_cell_angle_alpha    90.097
_cell_angle_beta     89.903
_cell_angle_gamma    120

_space_group_name_H-M_alt    "P 1"
_space_group_IT_number       1

loop_
  _space_group_symop_operation_xyz
  'x, y, z'

loop_
  _atom_site_type_symbol
  _atom_site_label
  _atom_site_symmetry_multiplicity
  _atom_site_fract_x
  _atom_site_fract_y
  _atom_site_fract_z
  _atom_site_occupancy
  C   C1        1.0  0.05234  0.65349  0.32999  1.0000
  C   C2        1.0  0.02080  0.63776  0.33011  1.0000
  C   C3        1.0  0.01071  0.60655  0.32750  1.0000
  N   N1        1.0  0.03649  0.60459  0.32591  1.0000
  C   C4        1.0  0.06232  0.63228  0.32743  1.0000
  C   C5        1.0  0.09340  0.63962  0.32640  1.0000
  C   C6        1.0  0.10322  0.61775  0.32533  1.0000
  N   N2        1.0  0.08597  0.58696  0.32645  1.0000
  C   C7        1.0  0.10317  0.57337  0.32550  1.0000
  C   C8        1.0  0.13347  0.59704  0.32342  1.0000
  C   C9        1.0  0.13350  0.62430  0.32355  1.0000
  C   C10       1.0  0.09328  0.54166  0.32672  1.0000
  C   C11       1.0  0.06216  0.51801  0.32752  1.0000
  N   N3        1.0  0.03639  0.51997  0.32588  1.0000
  C   C12       1.0  0.01056  0.49228  0.32748  1.0000
  C   C13       1.0  0.02054  0.47107  0.33020  1.0000
  C   C14       1.0  0.05208  0.48680  0.33032  1.0000
  C   C15       1.0  0.97948  0.48493  0.32641  1.0000
  C   C16       1.0  0.96966  0.50680  0.32531  1.0000
  N   N4        1.0  0.98691  0.53759  0.32643  1.0000
  C   C17       1.0  0.96971  0.55119  0.32553  1.0000
  C   C18       1.0  0.93941  0.52750  0.32353  1.0000
  C   C19       1.0  0.93938  0.50025  0.32361  1.0000
  C   C20       1.0  0.97960  0.58289  0.32678  1.0000
  C   C21       1.0  0.95638  0.59114  0.32804  1.0000
  C   C22       1.0  0.90436  0.59920  0.32796  1.0000
  C   C23       1.0  0.91972  0.60057  0.24696  1.0000
  C   C24       1.0  0.94523  0.59638  0.24671  1.0000
  C   C25       1.0  0.95620  0.45351  0.32746  1.0000
  C   C26       1.0  0.90366  0.39385  0.32996  1.0000
  C   C27       1.0  0.91681  0.40863  0.24738  1.0000
  C   C28       1.0  0.94271  0.43807  0.24613  1.0000
  C   C29       1.0  0.11649  0.53340  0.32802  1.0000
  C   C30       1.0  0.12754  0.52790  0.24673  1.0000
  C   C31       1.0  0.15299  0.52360  0.24699  1.0000
  C   C32       1.0  0.16830  0.52502  0.32796  1.0000
  C   C33       1.0  0.11669  0.67105  0.32741  1.0000
  C   C34       1.0  0.13023  0.68643  0.24609  1.0000
  C   C35       1.0  0.16935  0.73062  0.32993  1.0000
  C   C36       1.0  0.15618  0.71584  0.24734  1.0000
  H   H1        1.0  0.16614  0.72574  0.18737  1.0000
  H   H2        1.0  0.12207  0.67579  0.18542  1.0000
  H   H3        1.0  0.06558  0.67672  0.33162  1.0000
  H   H4        1.0  0.00763  0.64783  0.33192  1.0000
  H   H5        1.0  0.03646  0.58561  0.32316  1.0000
  H   H6        1.0  0.03642  0.53894  0.32277  1.0000
  H   H7        1.0  0.15275  0.64530  0.32239  1.0000
  H   H8        1.0  0.15268  0.59523  0.32207  1.0000
  H   H9        1.0  0.11778  0.52800  0.18646  1.0000
  H   H10       1.0  0.16092  0.52042  0.18676  1.0000
  H   H11       1.0  0.06524  0.47673  0.33223  1.0000
  H   H12       1.0  0.00730  0.44785  0.33196  1.0000
  H   H13       1.0  0.92020  0.52931  0.32227  1.0000
  H   H14       1.0  0.92014  0.47925  0.32253  1.0000
  H   H15       1.0  0.95089  0.44868  0.18547  1.0000
  H   H16       1.0  0.90693  0.39865  0.18739  1.0000
  H   H17       1.0  0.95502  0.59622  0.18643  1.0000
  H   H18       1.0  0.91172  0.60355  0.18669  1.0000
  N   N5        1.0  0.87779  0.36711  0.33655  1.0000
  N   N6        1.0  0.19327  0.52242  0.32165  1.0000
  N   N7        1.0  0.19534  0.75726  0.33653  1.0000
  N   N8        1.0  0.87929  0.60159  0.32165  1.0000
  C   C37       1.0  0.44467  0.48585  0.32920  1.0000
  C   C38       1.0  0.46040  0.47003  0.32928  1.0000
  C   C39       1.0  0.49161  0.49116  0.32661  1.0000
  N   N9        1.0  0.49357  0.51890  0.32502  1.0000
  C   C40       1.0  0.46588  0.51703  0.32662  1.0000
  C   C41       1.0  0.45853  0.54076  0.32562  1.0000
  C   C42       1.0  0.48040  0.57246  0.32451  1.0000
  N   N10       1.0  0.51119  0.58600  0.32559  1.0000
  C   C43       1.0  0.52478  0.61679  0.32465  1.0000
  C   C44       1.0  0.50110  0.62341  0.32262  1.0000
  C   C45       1.0  0.47384  0.59618  0.32277  1.0000
  C   C46       1.0  0.55648  0.63862  0.32586  1.0000
  C   C47       1.0  0.58014  0.63116  0.32659  1.0000
  N   N11       1.0  0.57818  0.60342  0.32496  1.0000
  C   C48       1.0  0.60587  0.60529  0.32659  1.0000
  C   C49       1.0  0.62708  0.63647  0.32921  1.0000
  C   C50       1.0  0.61135  0.65229  0.32931  1.0000
  C   C51       1.0  0.61322  0.58156  0.32556  1.0000
  C   C52       1.0  0.59136  0.54987  0.32446  1.0000
  N   N12       1.0  0.56057  0.53632  0.32555  1.0000
  C   C53       1.0  0.54698  0.50553  0.32465  1.0000
  C   C54       1.0  0.57066  0.49892  0.32266  1.0000
  C   C55       1.0  0.59792  0.52614  0.32279  1.0000
  C   C56       1.0  0.51527  0.48371  0.32586  1.0000
  C   C57       1.0  0.50703  0.45224  0.32712  1.0000
  C   C58       1.0  0.49895  0.39217  0.32705  1.0000
  C   C59       1.0  0.49760  0.40608  0.24604  1.0000
  C   C60       1.0  0.50176  0.43577  0.24579  1.0000
  C   C61       1.0  0.64465  0.58971  0.32669  1.0000
  C   C62       1.0  0.70433  0.59688  0.32952  1.0000
  C   C63       1.0  0.68957  0.59512  0.24686  1.0000
  C   C64       1.0  0.66013  0.59157  0.24546  1.0000
  C   C65       1.0  0.56474  0.67008  0.32713  1.0000
  C   C66       1.0  0.57024  0.68656  0.24584  1.0000
  C   C67       1.0  0.57455  0.71631  0.24609  1.0000
  C   C68       1.0  0.57311  0.73028  0.32705  1.0000
  C   C69       1.0  0.42710  0.53263  0.32674  1.0000
  C   C70       1.0  0.41168  0.53069  0.24549  1.0000
  C   C71       1.0  0.36754  0.52574  0.32953  1.0000
  C   C72       1.0  0.38230  0.52731  0.24687  1.0000
  H   H19       1.0  0.37236  0.52727  0.18694  1.0000
  H   H20       1.0  0.42231  0.53314  0.18478  1.0000
  H   H21       1.0  0.42144  0.47586  0.33090  1.0000
  H   H22       1.0  0.45034  0.44680  0.33111  1.0000
  H   H23       1.0  0.51254  0.53784  0.32222  1.0000
  H   H24       1.0  0.55921  0.58448  0.32210  1.0000
  H   H25       1.0  0.45284  0.59443  0.32168  1.0000
  H   H26       1.0  0.50290  0.64443  0.32132  1.0000
  H   H27       1.0  0.57013  0.67663  0.18557  1.0000
  H   H28       1.0  0.57772  0.72735  0.18585  1.0000
  H   H29       1.0  0.62141  0.67552  0.33120  1.0000
  H   H30       1.0  0.65030  0.64647  0.33094  1.0000
  H   H31       1.0  0.56886  0.47789  0.32139  1.0000
  H   H32       1.0  0.61892  0.52790  0.32171  1.0000
  H   H33       1.0  0.64954  0.58905  0.18474  1.0000
  H   H34       1.0  0.69958  0.59515  0.18693  1.0000
  H   H35       1.0  0.50193  0.44567  0.18551  1.0000
  H   H36       1.0  0.49457  0.39503  0.18580  1.0000
  N   N13       1.0  0.73105  0.59771  0.33628  1.0000
  N   N14       1.0  0.57572  0.75784  0.32074  1.0000
  N   N15       1.0  0.34090  0.52508  0.33625  1.0000
  N   N16       1.0  0.49655  0.36469  0.32074  1.0000
  C   C73       1.0  0.61230  0.04582  0.32887  1.0000
  C   C74       1.0  0.62812  0.07737  0.32904  1.0000
  C   C75       1.0  0.60699  0.08745  0.32633  1.0000
  N   N17       1.0  0.57926  0.06167  0.32465  1.0000
  C   C76       1.0  0.58111  0.03584  0.32620  1.0000
  C   C77       1.0  0.55738  0.00477  0.32509  1.0000
  C   C78       1.0  0.52569  0.99494  0.32401  1.0000
  N   N18       1.0  0.51215  0.01219  0.32517  1.0000
  C   C79       1.0  0.48135  0.99499  0.32429  1.0000
  C   C80       1.0  0.47474  0.96469  0.32225  1.0000
  C   C81       1.0  0.50196  0.96466  0.32230  1.0000
  C   C82       1.0  0.45954  0.00488  0.32558  1.0000
  C   C83       1.0  0.46700  0.03600  0.32629  1.0000
  N   N19       1.0  0.49473  0.06177  0.32461  1.0000
  C   C84       1.0  0.49287  0.08760  0.32618  1.0000
  C   C85       1.0  0.46169  0.07763  0.32883  1.0000
  C   C86       1.0  0.44587  0.04608  0.32900  1.0000
  C   C87       1.0  0.51660  0.11868  0.32513  1.0000
  C   C88       1.0  0.54830  0.12850  0.32409  1.0000
  N   N20       1.0  0.56183  0.11125  0.32521  1.0000
  C   C89       1.0  0.59263  0.12845  0.32434  1.0000
  C   C90       1.0  0.59925  0.15875  0.32232  1.0000
  C   C91       1.0  0.57203  0.15878  0.32238  1.0000
  C   C92       1.0  0.61445  0.11856  0.32561  1.0000
  C   C93       1.0  0.64591  0.14178  0.32698  1.0000
  C   C94       1.0  0.70599  0.19379  0.32724  1.0000
  C   C95       1.0  0.69212  0.17848  0.24615  1.0000
  C   C96       1.0  0.66243  0.15294  0.24574  1.0000
  C   C97       1.0  0.50846  0.14196  0.32617  1.0000
  C   C98       1.0  0.50128  0.19446  0.32885  1.0000
  C   C99       1.0  0.50304  0.18137  0.24622  1.0000
  C   C100      1.0  0.50658  0.15546  0.24488  1.0000
  C   C101      1.0  0.42807  0.98167  0.32698  1.0000
  C   C102      1.0  0.41156  0.97055  0.24577  1.0000
  C   C103      1.0  0.38180  0.94512  0.24619  1.0000
  C   C104      1.0  0.36788  0.92984  0.32726  1.0000
  C   C105      1.0  0.56551  0.98147  0.32615  1.0000
  C   C106      1.0  0.56741  0.96790  0.24486  1.0000
  C   C107      1.0  0.57239  0.92879  0.32882  1.0000
  C   C108      1.0  0.57082  0.94192  0.24619  1.0000
  H   H37       1.0  0.57086  0.93197  0.18624  1.0000
  H   H38       1.0  0.56499  0.97605  0.18418  1.0000
  H   H39       1.0  0.62229  0.03258  0.33055  1.0000
  H   H40       1.0  0.65135  0.09054  0.33092  1.0000
  H   H41       1.0  0.56031  0.06170  0.32170  1.0000
  H   H42       1.0  0.51368  0.06174  0.32175  1.0000
  H   H43       1.0  0.50371  0.94542  0.32118  1.0000
  H   H44       1.0  0.45371  0.94548  0.32097  1.0000
  H   H45       1.0  0.42144  0.98031  0.18546  1.0000
  H   H46       1.0  0.37072  0.93716  0.18602  1.0000
  H   H47       1.0  0.42264  0.03292  0.33090  1.0000
  H   H48       1.0  0.45170  0.09086  0.33055  1.0000
  H   H49       1.0  0.62027  0.17796  0.32106  1.0000
  H   H50       1.0  0.57027  0.17803  0.32128  1.0000
  H   H51       1.0  0.50915  0.14734  0.18420  1.0000
  H   H52       1.0  0.50305  0.19129  0.18628  1.0000
  H   H53       1.0  0.65257  0.14318  0.18541  1.0000
  H   H54       1.0  0.70320  0.18647  0.18596  1.0000
  N   N21       1.0  0.50043  0.22034  0.33554  1.0000
  N   N22       1.0  0.34032  0.90487  0.32111  1.0000
  N   N23       1.0  0.57305  0.90282  0.33549  1.0000
  N   N24       1.0  0.73347  0.21886  0.32108  1.0000
  C   C109      1.0  0.29290  0.52008  0.30385  1.0000
  C   C110      1.0  0.27497  0.52375  0.23671  1.0000
  C   C111      1.0  0.24902  0.52575  0.26224  1.0000
  H   H55       1.0  0.23690  0.52899  0.21256  1.0000
  N   N25       1.0  0.28335  0.52590  0.14455  1.0000
  O   O1        1.0  0.28907  0.55097  0.11077  1.0000
  O   O2        1.0  0.26283  0.50468  0.09871  1.0000
  C   C112      1.0  0.31871  0.51806  0.28108  1.0000
  H   H56       1.0  0.32016  0.51120  0.21942  1.0000
  C   C113      1.0  0.57805  0.85979  0.30302  1.0000
  C   C114      1.0  0.57437  0.83812  0.23585  1.0000
  C   C115      1.0  0.57236  0.81020  0.26135  1.0000
  H   H57       1.0  0.56913  0.79480  0.21165  1.0000
  N   N26       1.0  0.57222  0.84427  0.14370  1.0000
  O   O3        1.0  0.54714  0.82490  0.10992  1.0000
  O   O4        1.0  0.59343  0.84492  0.09784  1.0000
  C   C116      1.0  0.58007  0.88761  0.28028  1.0000
  H   H58       1.0  0.58693  0.89586  0.21862  1.0000
  C   C117      1.0  0.23834  0.80524  0.30391  1.0000
  C   C118      1.0  0.25997  0.82316  0.23665  1.0000
  C   C119      1.0  0.28791  0.84910  0.26202  1.0000
  H   H59       1.0  0.30327  0.86121  0.21224  1.0000
  N   N27       1.0  0.25376  0.81475  0.14452  1.0000
  O   O5        1.0  0.27312  0.80901  0.11062  1.0000
  O   O6        1.0  0.25308  0.83526  0.09870  1.0000
  C   C120      1.0  0.21051  0.77943  0.28130  1.0000
  H   H60       1.0  0.20222  0.77799  0.21971  1.0000
  C   C121      1.0  0.77922  0.60306  0.30389  1.0000
  C   C122      1.0  0.79731  0.59952  0.23673  1.0000
  C   C123      1.0  0.82336  0.59776  0.26225  1.0000
  H   H61       1.0  0.83559  0.59462  0.21255  1.0000
  N   N28       1.0  0.78897  0.59726  0.14457  1.0000
  O   O7        1.0  0.78346  0.57223  0.11076  1.0000
  O   O8        1.0  0.80943  0.61855  0.09876  1.0000
  C   C124      1.0  0.75332  0.60487  0.28113  1.0000
  H   H62       1.0  0.75188  0.61170  0.21952  1.0000
  C   C125      1.0  0.49508  0.26313  0.30306  1.0000
  C   C126      1.0  0.49861  0.28469  0.23588  1.0000
  C   C127      1.0  0.50037  0.31252  0.26137  1.0000
  H   H63       1.0  0.50351  0.32784  0.21167  1.0000
  N   N29       1.0  0.50087  0.27851  0.14372  1.0000
  O   O9        1.0  0.52589  0.29799  0.10989  1.0000
  O   O10       1.0  0.47958  0.27763  0.09791  1.0000
  C   C128      1.0  0.49329  0.23540  0.28032  1.0000
  H   H64       1.0  0.48651  0.22708  0.21868  1.0000
  C   C129      1.0  0.83503  0.31894  0.30389  1.0000
  C   C130      1.0  0.81351  0.30087  0.23663  1.0000
  C   C131      1.0  0.78566  0.27481  0.26199  1.0000
  H   H65       1.0  0.77037  0.26259  0.21221  1.0000
  N   N30       1.0  0.81973  0.30925  0.14450  1.0000
  O   O11       1.0  0.80026  0.31477  0.11063  1.0000
  O   O12       1.0  0.82062  0.28881  0.09865  1.0000
  C   C132      1.0  0.86277  0.34487  0.28128  1.0000
  H   H66       1.0  0.87112  0.34636  0.21968  1.0000
  C   C133      1.0  0.94159  0.59055  0.40957  1.0000
  C   C134      1.0  0.91600  0.59460  0.40955  1.0000
  C   C135      1.0  0.94334  0.43867  0.40997  1.0000
  C   C136      1.0  0.91740  0.40927  0.41100  1.0000
  C   C137      1.0  0.15675  0.52988  0.40951  1.0000
  C   C138      1.0  0.13126  0.53409  0.40951  1.0000
  C   C139      1.0  0.12955  0.68589  0.40994  1.0000
  C   C140      1.0  0.15555  0.71525  0.41096  1.0000
  H   H67       1.0  0.16492  0.72502  0.47177  1.0000
  H   H68       1.0  0.12085  0.67491  0.46984  1.0000
  H   H69       1.0  0.12412  0.53863  0.46918  1.0000
  H   H70       1.0  0.16710  0.53102  0.46959  1.0000
  H   H71       1.0  0.95203  0.44967  0.46987  1.0000
  H   H72       1.0  0.90808  0.39947  0.47181  1.0000
  H   H73       1.0  0.90561  0.59349  0.46963  1.0000
  H   H74       1.0  0.94875  0.58614  0.46926  1.0000
  C   C141      1.0  0.50761  0.43813  0.40866  1.0000
  C   C142      1.0  0.50357  0.40849  0.40864  1.0000
  C   C143      1.0  0.65946  0.59178  0.40928  1.0000
  C   C144      1.0  0.68886  0.59525  0.41047  1.0000
  C   C145      1.0  0.56826  0.71394  0.40861  1.0000
  C   C146      1.0  0.56406  0.68425  0.40863  1.0000
  C   C147      1.0  0.41229  0.53072  0.40934  1.0000
  C   C148      1.0  0.38292  0.52735  0.41050  1.0000
  H   H75       1.0  0.37317  0.52699  0.47135  1.0000
  H   H76       1.0  0.42329  0.53304  0.46919  1.0000
  H   H77       1.0  0.55950  0.67263  0.46830  1.0000
  H   H78       1.0  0.56711  0.72322  0.46867  1.0000
  H   H79       1.0  0.64841  0.58949  0.46913  1.0000
  H   H80       1.0  0.69861  0.59575  0.47134  1.0000
  H   H81       1.0  0.50465  0.39925  0.46873  1.0000
  H   H82       1.0  0.51204  0.44977  0.46835  1.0000
  C   C149      1.0  0.65998  0.15654  0.40859  1.0000
  C   C150      1.0  0.68962  0.18212  0.40874  1.0000
  C   C151      1.0  0.50638  0.15479  0.40874  1.0000
  C   C152      1.0  0.50286  0.18069  0.40984  1.0000
  C   C153      1.0  0.38425  0.94145  0.40872  1.0000
  C   C154      1.0  0.41396  0.96694  0.40855  1.0000
  C   C155      1.0  0.56745  0.96865  0.40872  1.0000
  C   C156      1.0  0.57077  0.94262  0.40981  1.0000
  H   H83       1.0  0.57117  0.93331  0.47064  1.0000
  H   H84       1.0  0.56512  0.97737  0.46859  1.0000
  H   H85       1.0  0.42560  0.97410  0.46818  1.0000
  H   H86       1.0  0.37502  0.93110  0.46884  1.0000
  H   H87       1.0  0.50861  0.14607  0.46861  1.0000
  H   H88       1.0  0.50234  0.19000  0.47068  1.0000
  H   H89       1.0  0.69882  0.19249  0.46888  1.0000
  H   H90       1.0  0.64832  0.14936  0.46823  1.0000
  C   C157      1.0  0.23997  0.52418  0.35338  1.0000
  C   C158      1.0  0.25779  0.52031  0.42047  1.0000
  C   C159      1.0  0.28370  0.51825  0.39493  1.0000
  H   H91       1.0  0.29598  0.51529  0.44468  1.0000
  N   N31       1.0  0.24954  0.51840  0.51270  1.0000
  O   O13       1.0  0.24375  0.49336  0.54683  1.0000
  O   O14       1.0  0.27017  0.53965  0.55818  1.0000
  C   C160      1.0  0.21515  0.52787  0.37651  1.0000
  H   H92       1.0  0.21492  0.53601  0.43726  1.0000
  C   C161      1.0  0.57395  0.80280  0.35247  1.0000
  C   C162      1.0  0.57782  0.82455  0.41959  1.0000
  C   C163      1.0  0.57988  0.85250  0.39408  1.0000
  H   H93       1.0  0.58285  0.86779  0.44385  1.0000
  N   N32       1.0  0.57974  0.81829  0.51181  1.0000
  O   O15       1.0  0.60478  0.83758  0.54594  1.0000
  O   O16       1.0  0.55849  0.81772  0.55731  1.0000
  C   C164      1.0  0.57024  0.77431  0.37557  1.0000
  H   H94       1.0  0.56206  0.76598  0.43629  1.0000
  C   C165      1.0  0.29536  0.85819  0.35311  1.0000
  C   C166      1.0  0.27365  0.84039  0.42034  1.0000
  C   C167      1.0  0.24569  0.81447  0.39495  1.0000
  H   H95       1.0  0.23043  0.80221  0.44479  1.0000
  N   N33       1.0  0.27996  0.84867  0.51252  1.0000
  O   O17       1.0  0.26069  0.85447  0.54678  1.0000
  O   O18       1.0  0.28056  0.82805  0.55800  1.0000
  C   C168      1.0  0.32386  0.88302  0.37607  1.0000
  H   H96       1.0  0.33220  0.88327  0.43680  1.0000
  C   C169      1.0  0.83238  0.59946  0.35338  1.0000
  C   C170      1.0  0.81440  0.60318  0.42049  1.0000
  C   C171      1.0  0.78839  0.60501  0.39497  1.0000
  H   H97       1.0  0.77600  0.60788  0.44473  1.0000
  N   N34       1.0  0.82261  0.60520  0.51272  1.0000
  O   O19       1.0  0.82818  0.63020  0.54690  1.0000
  O   O20       1.0  0.80204  0.58389  0.55817  1.0000
  C   C172      1.0  0.85731  0.59600  0.37648  1.0000
  H   H98       1.0  0.85755  0.58788  0.43719  1.0000
  C   C173      1.0  0.49868  0.31994  0.35251  1.0000
  C   C174      1.0  0.49495  0.29831  0.41963  1.0000
  C   C175      1.0  0.49314  0.27045  0.39413  1.0000
  H   H99       1.0  0.49026  0.25524  0.44390  1.0000
  N   N35       1.0  0.49294  0.30460  0.51185  1.0000
  O   O21       1.0  0.46794  0.28521  0.54604  1.0000
  O   O22       1.0  0.51425  0.30539  0.55730  1.0000
  C   C176      1.0  0.50214  0.34836  0.37559  1.0000
  H   H100      1.0  0.51026  0.35677  0.43629  1.0000
  C   C177      1.0  0.77821  0.26574  0.35308  1.0000
  C   C178      1.0  0.79981  0.28370  0.42031  1.0000
  C   C179      1.0  0.82768  0.30974  0.39493  1.0000
  H   H101      1.0  0.84286  0.32211  0.44477  1.0000
  N   N36       1.0  0.79348  0.27546  0.51249  1.0000
  O   O23       1.0  0.81286  0.26988  0.54674  1.0000
  O   O24       1.0  0.79266  0.29601  0.55797  1.0000
  C   C180      1.0  0.74978  0.24080  0.37604  1.0000
  H   H102      1.0  0.74135  0.24054  0.43672  1.0000
