data_image0
_chemical_formula_structural       C3OHNC2HCHCNC5HOHC4HC6HOHOHC4HC6HOHOHCNCHNHCNCHNHCNCHNHCNCHNHCNCHNHCNCHNHCNCNCNCNCNCNCNCNCNCNCNCNCNCNCNCNCNCNHCNCHNHCNCHNHC4HC6HOHOHC4HC6HOHOHC4HC6HOHOHC4HC6HOHOHC4HC6HOHOHC4HC6HOHOH
_chemical_formula_sum              "C126 O18 H54 N36"
_cell_length_a       45.9099
_cell_length_b       45.9098
_cell_length_c       14.907
_cell_angle_alpha    90
_cell_angle_beta     90
_cell_angle_gamma    120

_space_group_name_H-M_alt    "P 1"
_space_group_IT_number       1

loop_
  _space_group_symop_operation_xyz
  'x, y, z'

loop_
  _atom_site_type_symbol
  _atom_site_label
  _atom_site_symmetry_multiplicity
  _atom_site_fract_x
  _atom_site_fract_y
  _atom_site_fract_z
  _atom_site_occupancy
  C   C1        1.0  0.02249  0.51301  0.32030  1.0000
  C   C2        1.0  0.04045  0.54846  0.30837  1.0000
  C   C3        1.0  0.02243  0.56571  0.29508  1.0000
  O   O1        1.0  0.03880  0.59974  0.28463  1.0000
  H   H1        1.0  0.04258  0.60392  0.21981  1.0000
  N   N1        1.0  0.04026  0.49687  0.33216  1.0000
  C   C4        1.0  0.09408  0.54804  0.32275  1.0000
  C   C5        1.0  0.07606  0.56537  0.31018  1.0000
  H   H2        1.0  0.08912  0.59090  0.30154  1.0000
  C   C6        1.0  0.07441  0.51272  0.33336  1.0000
  H   H3        1.0  0.08543  0.49837  0.34306  1.0000
  C   C7        1.0  0.13014  0.56546  0.32441  1.0000
  N   N2        1.0  0.14763  0.54852  0.32597  1.0000
  C   C8        1.0  0.98685  0.49519  0.32029  1.0000
  C   C9        1.0  0.91525  0.45863  0.32271  1.0000
  C   C10       1.0  0.93327  0.49398  0.31015  1.0000
  C   C11       1.0  0.96888  0.51268  0.30836  1.0000
  C   C12       1.0  0.98690  0.54795  0.29508  1.0000
  H   H4        1.0  0.92021  0.50645  0.30150  1.0000
  O   O2        1.0  0.97054  0.56561  0.28462  1.0000
  H   H5        1.0  0.96675  0.56601  0.21980  1.0000
  C   C13       1.0  0.45969  0.54756  0.32297  1.0000
  C   C14       1.0  0.49473  0.51100  0.32050  1.0000
  C   C15       1.0  0.45927  0.49351  0.30865  1.0000
  C   C16       1.0  0.44235  0.51221  0.31048  1.0000
  H   H6        1.0  0.41682  0.49974  0.30187  1.0000
  C   C17       1.0  0.51255  0.49318  0.32046  1.0000
  C   C18       1.0  0.54910  0.45814  0.32278  1.0000
  C   C19       1.0  0.51375  0.44081  0.31031  1.0000
  C   C20       1.0  0.49505  0.45772  0.30857  1.0000
  C   C21       1.0  0.45978  0.44048  0.29538  1.0000
  C   C22       1.0  0.44202  0.45824  0.29543  1.0000
  H   H7        1.0  0.50128  0.41528  0.30169  1.0000
  O   O3        1.0  0.44211  0.40644  0.28495  1.0000
  H   H8        1.0  0.44169  0.40225  0.22013  1.0000
  O   O4        1.0  0.40798  0.44057  0.28503  1.0000
  H   H9        1.0  0.40378  0.44016  0.22022  1.0000
  C   C23       1.0  0.46020  0.91370  0.32305  1.0000
  C   C24       1.0  0.49674  0.98529  0.32055  1.0000
  C   C25       1.0  0.51424  0.96733  0.30863  1.0000
  C   C26       1.0  0.49555  0.93172  0.31046  1.0000
  H   H10       1.0  0.50802  0.91866  0.30181  1.0000
  C   C27       1.0  0.51456  0.02093  0.32051  1.0000
  C   C28       1.0  0.54958  0.09252  0.32287  1.0000
  C   C29       1.0  0.56692  0.07451  0.31032  1.0000
  C   C30       1.0  0.55001  0.03890  0.30856  1.0000
  C   C31       1.0  0.56726  0.02088  0.29530  1.0000
  C   C32       1.0  0.54950  0.98535  0.29532  1.0000
  H   H11       1.0  0.59245  0.08757  0.30165  1.0000
  O   O5        1.0  0.60130  0.03725  0.28480  1.0000
  H   H12       1.0  0.60546  0.04102  0.21997  1.0000
  O   O6        1.0  0.56718  0.96899  0.28487  1.0000
  H   H13       1.0  0.56757  0.96520  0.22006  1.0000
  C   C33       1.0  0.21736  0.54770  0.25053  1.0000
  N   N3        1.0  0.24518  0.54459  0.25514  1.0000
  C   C34       1.0  0.33773  0.54961  0.24998  1.0000
  H   H14       1.0  0.20986  0.55147  0.18909  1.0000
  N   N4        1.0  0.30643  0.54561  0.25485  1.0000
  H   H15       1.0  0.34893  0.55350  0.18842  1.0000
  C   C35       1.0  0.45977  0.67104  0.25034  1.0000
  N   N5        1.0  0.46286  0.70197  0.25481  1.0000
  C   C36       1.0  0.45780  0.78946  0.24961  1.0000
  H   H16       1.0  0.45566  0.65964  0.18900  1.0000
  N   N6        1.0  0.46183  0.76219  0.25441  1.0000
  H   H17       1.0  0.45364  0.79664  0.18817  1.0000
  C   C37       1.0  0.33668  0.79035  0.25066  1.0000
  N   N7        1.0  0.30572  0.76255  0.25509  1.0000
  C   C38       1.0  0.21816  0.67005  0.24963  1.0000
  H   H18       1.0  0.34797  0.79783  0.18924  1.0000
  N   N8        1.0  0.24548  0.70133  0.25457  1.0000
  H   H19       1.0  0.21097  0.65880  0.18809  1.0000
  C   C39       1.0  0.79112  0.45641  0.24929  1.0000
  N   N9        1.0  0.76385  0.46045  0.25415  1.0000
  C   C40       1.0  0.67267  0.45832  0.25012  1.0000
  H   H20       1.0  0.79841  0.45246  0.18776  1.0000
  N   N10       1.0  0.70362  0.46146  0.25458  1.0000
  H   H21       1.0  0.66138  0.45448  0.18869  1.0000
  C   C41       1.0  0.55129  0.33620  0.24926  1.0000
  N   N11       1.0  0.54727  0.30490  0.25422  1.0000
  C   C42       1.0  0.54936  0.21582  0.25033  1.0000
  H   H22       1.0  0.55528  0.34745  0.18773  1.0000
  N   N12       1.0  0.54625  0.24365  0.25478  1.0000
  H   H23       1.0  0.55323  0.20838  0.18893  1.0000
  C   C43       1.0  0.67152  0.21655  0.24974  1.0000
  N   N13       1.0  0.70281  0.24385  0.25454  1.0000
  C   C44       1.0  0.79188  0.33502  0.25020  1.0000
  H   H24       1.0  0.66023  0.20933  0.18825  1.0000
  N   N14       1.0  0.76406  0.30408  0.25476  1.0000
  H   H25       1.0  0.79931  0.34632  0.18877  1.0000
  C   C45       1.0  0.18249  0.61690  0.32595  1.0000
  N   N15       1.0  0.14833  0.59987  0.32475  1.0000
  C   C46       1.0  0.18186  0.56518  0.32714  1.0000
  N   N16       1.0  0.19875  0.59919  0.32746  1.0000
  C   C47       1.0  0.39086  0.56716  0.32618  1.0000
  N   N17       1.0  0.40788  0.55002  0.32503  1.0000
  C   C48       1.0  0.44229  0.56622  0.32459  1.0000
  N   N18       1.0  0.45924  0.60064  0.32602  1.0000
  C   C49       1.0  0.44260  0.61823  0.32710  1.0000
  N   N19       1.0  0.40859  0.60113  0.32755  1.0000
  C   C50       1.0  0.44063  0.82527  0.32611  1.0000
  N   N20       1.0  0.45776  0.85944  0.32498  1.0000
  C   C51       1.0  0.44155  0.87763  0.32467  1.0000
  N   N21       1.0  0.40713  0.86015  0.32620  1.0000
  C   C52       1.0  0.38955  0.82592  0.32724  1.0000
  N   N22       1.0  0.40666  0.80902  0.32754  1.0000
  C   C53       1.0  0.82749  0.38796  0.32688  1.0000
  N   N23       1.0  0.86171  0.40555  0.32580  1.0000
  C   C54       1.0  0.87919  0.43998  0.32432  1.0000
  N   N24       1.0  0.86099  0.45619  0.32466  1.0000
  C   C55       1.0  0.82682  0.43904  0.32582  1.0000
  N   N25       1.0  0.81058  0.40507  0.32718  1.0000
  C   C56       1.0  0.61977  0.44104  0.32671  1.0000
  N   N26       1.0  0.60219  0.45768  0.32577  1.0000
  C   C57       1.0  0.56776  0.44074  0.32432  1.0000
  N   N27       1.0  0.55156  0.40633  0.32461  1.0000
  C   C58       1.0  0.56870  0.38931  0.32565  1.0000
  N   N28       1.0  0.60267  0.40703  0.32701  1.0000
  C   C59       1.0  0.56671  0.18030  0.32704  1.0000
  N   N29       1.0  0.55006  0.14608  0.32593  1.0000
  C   C60       1.0  0.56699  0.12859  0.32447  1.0000
  N   N30       1.0  0.60140  0.14677  0.32489  1.0000
  C   C61       1.0  0.61844  0.18094  0.32605  1.0000
  N   N31       1.0  0.60072  0.19720  0.32746  1.0000
  C   C62       1.0  0.93492  0.44298  0.33334  1.0000
  N   N32       1.0  0.96907  0.46128  0.33215  1.0000
  H   H26       1.0  0.92390  0.41761  0.34301  1.0000
  C   C63       1.0  0.49502  0.56322  0.33352  1.0000
  N   N33       1.0  0.51087  0.54491  0.33230  1.0000
  C   C64       1.0  0.56476  0.49347  0.33337  1.0000
  H   H27       1.0  0.50938  0.58859  0.34313  1.0000
  N   N34       1.0  0.54646  0.50932  0.33223  1.0000
  H   H28       1.0  0.59014  0.50782  0.34299  1.0000
  C   C65       1.0  0.44454  0.93336  0.33368  1.0000
  N   N35       1.0  0.46284  0.96752  0.33243  1.0000
  C   C66       1.0  0.51426  0.07285  0.33351  1.0000
  H   H29       1.0  0.41917  0.92234  0.34335  1.0000
  N   N36       1.0  0.49842  0.03870  0.33235  1.0000
  H   H30       1.0  0.49991  0.08387  0.34318  1.0000
  C   C67       1.0  0.20172  0.54973  0.32987  1.0000
  C   C68       1.0  0.25921  0.54258  0.33360  1.0000
  C   C69       1.0  0.24419  0.54366  0.41602  1.0000
  C   C70       1.0  0.21537  0.54736  0.41268  1.0000
  H   H31       1.0  0.20580  0.55109  0.47089  1.0000
  C   C71       1.0  0.29025  0.54309  0.33344  1.0000
  C   C72       1.0  0.35559  0.55202  0.32921  1.0000
  C   C73       1.0  0.33949  0.54921  0.41212  1.0000
  C   C74       1.0  0.30663  0.54462  0.41574  1.0000
  C   C75       1.0  0.29076  0.54397  0.49781  1.0000
  C   C76       1.0  0.25976  0.54352  0.49795  1.0000
  H   H32       1.0  0.35283  0.55299  0.47028  1.0000
  O   O7        1.0  0.30614  0.54639  0.57784  1.0000
  H   H33       1.0  0.29916  0.52322  0.59595  1.0000
  O   O8        1.0  0.24663  0.54555  0.57811  1.0000
  H   H34       1.0  0.23092  0.52225  0.59634  1.0000
  C   C77       1.0  0.45807  0.65354  0.32976  1.0000
  C   C78       1.0  0.46522  0.71820  0.33316  1.0000
  C   C79       1.0  0.46452  0.70230  0.41562  1.0000
  C   C80       1.0  0.46081  0.66977  0.41242  1.0000
  H   H35       1.0  0.45732  0.65660  0.47075  1.0000
  C   C81       1.0  0.46471  0.74873  0.33294  1.0000
  C   C82       1.0  0.45579  0.80517  0.32885  1.0000
  C   C83       1.0  0.45900  0.79209  0.41168  1.0000
  C   C84       1.0  0.46356  0.76379  0.41523  1.0000
  C   C85       1.0  0.46457  0.74876  0.49731  1.0000
  C   C86       1.0  0.46502  0.71821  0.49750  1.0000
  H   H36       1.0  0.45544  0.80177  0.46991  1.0000
  O   O9        1.0  0.46252  0.76193  0.57738  1.0000
  H   H37       1.0  0.48578  0.77816  0.59473  1.0000
  O   O10       1.0  0.46335  0.70325  0.57774  1.0000
  H   H38       1.0  0.48673  0.71089  0.59523  1.0000
  C   C87       1.0  0.35425  0.80608  0.33007  1.0000
  C   C88       1.0  0.28957  0.74856  0.33345  1.0000
  C   C89       1.0  0.30557  0.76363  0.41594  1.0000
  C   C90       1.0  0.33809  0.79246  0.41274  1.0000
  H   H39       1.0  0.35133  0.80201  0.47105  1.0000
  C   C91       1.0  0.25904  0.71752  0.33319  1.0000
  C   C92       1.0  0.20259  0.65217  0.32875  1.0000
  C   C93       1.0  0.21580  0.66833  0.41168  1.0000
  C   C94       1.0  0.24409  0.70118  0.41541  1.0000
  C   C95       1.0  0.25922  0.71707  0.49753  1.0000
  C   C96       1.0  0.28978  0.74807  0.49779  1.0000
  H   H40       1.0  0.20621  0.65499  0.46983  1.0000
  O   O11       1.0  0.24616  0.70172  0.57753  1.0000
  H   H41       1.0  0.22994  0.70871  0.59534  1.0000
  O   O12       1.0  0.30483  0.76125  0.57803  1.0000
  H   H42       1.0  0.29718  0.77694  0.59601  1.0000
  C   C97       1.0  0.80669  0.45419  0.32849  1.0000
  C   C98       1.0  0.75028  0.46312  0.33274  1.0000
  C   C99       1.0  0.76522  0.46174  0.41503  1.0000
  C   C100      1.0  0.79350  0.45714  0.41141  1.0000
  H   H43       1.0  0.80313  0.45350  0.46961  1.0000
  C   C101      1.0  0.71976  0.46364  0.33295  1.0000
  C   C102      1.0  0.65507  0.45650  0.32945  1.0000
  C   C103      1.0  0.67124  0.45905  0.41213  1.0000
  C   C104      1.0  0.70375  0.46272  0.41540  1.0000
  C   C105      1.0  0.71954  0.46300  0.49730  1.0000
  C   C106      1.0  0.75010  0.46255  0.49712  1.0000
  H   H44       1.0  0.65802  0.45540  0.47044  1.0000
  O   O13       1.0  0.70449  0.46116  0.57749  1.0000
  H   H45       1.0  0.71215  0.48451  0.59541  1.0000
  O   O14       1.0  0.76314  0.46027  0.57715  1.0000
  H   H46       1.0  0.77937  0.48349  0.59493  1.0000
  C   C107      1.0  0.55355  0.35403  0.32842  1.0000
  C   C108      1.0  0.54462  0.28870  0.33285  1.0000
  C   C109      1.0  0.54602  0.30505  0.41509  1.0000
  C   C110      1.0  0.55057  0.33790  0.41140  1.0000
  H   H47       1.0  0.55429  0.35124  0.46953  1.0000
  C   C111      1.0  0.54411  0.25766  0.33314  1.0000
  C   C112      1.0  0.55126  0.20016  0.32977  1.0000
  C   C113      1.0  0.54879  0.21380  0.41246  1.0000
  C   C114      1.0  0.54505  0.24260  0.41564  1.0000
  C   C115      1.0  0.54478  0.25815  0.49750  1.0000
  C   C116      1.0  0.54523  0.28915  0.49722  1.0000
  H   H48       1.0  0.55238  0.20419  0.47078  1.0000
  O   O15       1.0  0.54668  0.24499  0.57774  1.0000
  H   H49       1.0  0.52335  0.22927  0.59572  1.0000
  O   O16       1.0  0.54751  0.30450  0.57721  1.0000
  H   H50       1.0  0.52430  0.29750  0.59502  1.0000
  C   C117      1.0  0.65370  0.20104  0.32901  1.0000
  C   C118      1.0  0.71906  0.25746  0.33308  1.0000
  C   C119      1.0  0.70276  0.24255  0.41540  1.0000
  C   C120      1.0  0.66990  0.21426  0.41185  1.0000
  H   H51       1.0  0.65659  0.20469  0.47005  1.0000
  C   C121      1.0  0.75010  0.28798  0.33318  1.0000
  C   C122      1.0  0.80765  0.35267  0.32946  1.0000
  C   C123      1.0  0.79402  0.33654  0.41220  1.0000
  C   C124      1.0  0.76521  0.30402  0.41558  1.0000
  C   C125      1.0  0.74971  0.28827  0.49753  1.0000
  C   C126      1.0  0.71871  0.25772  0.49744  1.0000
  H   H52       1.0  0.80364  0.34979  0.47047  1.0000
  O   O17       1.0  0.76292  0.30336  0.57770  1.0000
  H   H53       1.0  0.77864  0.29575  0.59563  1.0000
  O   O18       1.0  0.70340  0.24469  0.57751  1.0000
  H   H54       1.0  0.71041  0.22848  0.59533  1.0000
