data_image0
_chemical_formula_structural       C3NCOC2NCOHC3H2C3H3CHOHCHC2H2OCO2HC2H2OCO2HC2H2OCO2HC2H2OCO2HC2H2OCO2HC2H2OCO2HC4NC2NOHCOC2NCOHC4NC2NOHCOC4NC2NOHCOC3NCOC4NC2NOHCOC4NC2NOHCOC4NC2NOHCOC4NC2NOHCOC4NC2NOHCOC4NC2NOHCOC4NC2NOHCOC6H3C6H3C6H3C6H3C3HC3HC6H3C6H3C6H3C6H3C6H3C6H3C4NC2NHC4NC2NHC4NC2NHC4NC2NHC4NC2NHC4NC2NHC2H2OCHC2H2OHC2H2OHCHOHC2H2OHC2H2OHC2H2OHC2H2OHC2H2OHC2H2OHC2H2OH
_chemical_formula_sum              "C234 N36 O54 H108"
_cell_length_a       37.5797
_cell_length_b       37.5797
_cell_length_c       14.8194
_cell_angle_alpha    90
_cell_angle_beta     90
_cell_angle_gamma    120

_space_group_name_H-M_alt    "P 1"
_space_group_IT_number       1

loop_
  _space_group_symop_operation_xyz
  'x, y, z'

loop_
  _atom_site_type_symbol
  _atom_site_label
  _atom_site_symmetry_multiplicity
  _atom_site_fract_x
  _atom_site_fract_y
  _atom_site_fract_z
  _atom_site_occupancy
  C   C1        1.0  0.82878  0.04242  0.34395  1.0000
  C   C2        1.0  0.82613  0.02035  0.26422  1.0000
  C   C3        1.0  0.84135  0.02259  0.10612  1.0000
  N   N1        1.0  0.84315  0.04089  0.18626  1.0000
  C   C4        1.0  0.85906  0.04658  0.02999  1.0000
  O   O1        1.0  0.85928  0.07911  0.02308  1.0000
  C   C5        1.0  0.20787  0.02409  0.26226  1.0000
  C   C6        1.0  0.22711  0.04654  0.34239  1.0000
  N   N2        1.0  0.20991  0.04268  0.18123  1.0000
  C   C7        1.0  0.19247  0.02132  0.10409  1.0000
  O   O2        1.0  0.19706  0.04214  0.02626  1.0000
  H   H1        1.0  0.22498  0.07251  0.17662  1.0000
  C   C8        1.0  0.22726  0.11255  0.34299  1.0000
  C   C9        1.0  0.24876  0.09053  0.34634  1.0000
  C   C10       1.0  0.29218  0.11304  0.35283  1.0000
  H   H2        1.0  0.30815  0.09754  0.35404  1.0000
  H   H3        1.0  0.19582  0.09661  0.33880  1.0000
  C   C11       1.0  0.85045  0.08641  0.34689  1.0000
  C   C12       1.0  0.89393  0.10901  0.34305  1.0000
  C   C13       1.0  0.82890  0.10832  0.35231  1.0000
  H   H4        1.0  0.79742  0.09238  0.35371  1.0000
  H   H5        1.0  0.90987  0.09352  0.33887  1.0000
  H   H6        1.0  0.14471  0.11388  0.65756  1.0000
  C   C14       1.0  0.80885  0.01956  0.42205  1.0000
  H   H7        1.0  0.81008  0.03439  0.48096  1.0000
  O   O3        1.0  0.88600  0.04468  0.65254  1.0000
  H   H8        1.0  0.89246  0.02509  0.65737  1.0000
  C   C15       1.0  0.22482  0.02427  0.42127  1.0000
  H   H9        1.0  0.23835  0.03954  0.47986  1.0000
  C   C16       1.0  0.20733  0.41786  0.27764  1.0000
  C   C17       1.0  0.18550  0.37457  0.27725  1.0000
  H   H10       1.0  0.17417  0.35956  0.21729  1.0000
  H   H11       1.0  0.21125  0.43299  0.21773  1.0000
  O   O4        1.0  0.23955  0.43703  0.01232  1.0000
  C   C18       1.0  0.19555  0.34893  0.00991  1.0000
  O   O5        1.0  0.16299  0.31655  0.01469  1.0000
  O   O6        1.0  0.22324  0.35080  0.05840  1.0000
  H   H12       1.0  0.24937  0.37037  0.05618  1.0000
  C   C19       1.0  0.58868  0.78369  0.27737  1.0000
  C   C20       1.0  0.63197  0.80519  0.27711  1.0000
  H   H13       1.0  0.64702  0.80894  0.21719  1.0000
  H   H14       1.0  0.57360  0.77251  0.21738  1.0000
  O   O7        1.0  0.56921  0.79659  0.01196  1.0000
  C   C21       1.0  0.65724  0.84072  0.00997  1.0000
  O   O8        1.0  0.68955  0.84037  0.01441  1.0000
  O   O9        1.0  0.65565  0.86687  0.05772  1.0000
  H   H15       1.0  0.63610  0.87346  0.05541  1.0000
  C   C22       1.0  0.22293  0.79939  0.27771  1.0000
  C   C23       1.0  0.20140  0.82115  0.27733  1.0000
  H   H16       1.0  0.19773  0.83250  0.21739  1.0000
  H   H17       1.0  0.23419  0.79554  0.21780  1.0000
  O   O10       1.0  0.20964  0.76685  0.01226  1.0000
  C   C24       1.0  0.16542  0.81074  0.00989  1.0000
  O   O11       1.0  0.16555  0.84327  0.01474  1.0000
  O   O12       1.0  0.13963  0.78301  0.05830  1.0000
  H   H18       1.0  0.13310  0.75688  0.05601  1.0000
  C   C25       1.0  0.80526  0.58265  0.27775  1.0000
  C   C26       1.0  0.82704  0.62593  0.27738  1.0000
  H   H19       1.0  0.83839  0.64095  0.21744  1.0000
  H   H20       1.0  0.80139  0.56753  0.21783  1.0000
  O   O13       1.0  0.77280  0.56339  0.01233  1.0000
  C   C27       1.0  0.81672  0.65149  0.00997  1.0000
  O   O14       1.0  0.84926  0.68389  0.01480  1.0000
  O   O15       1.0  0.78900  0.64957  0.05842  1.0000
  H   H21       1.0  0.76288  0.62998  0.05616  1.0000
  C   C28       1.0  0.42385  0.21684  0.27776  1.0000
  C   C29       1.0  0.38057  0.19537  0.27737  1.0000
  H   H22       1.0  0.36556  0.19169  0.21742  1.0000
  H   H23       1.0  0.43898  0.22806  0.21784  1.0000
  O   O16       1.0  0.44305  0.20369  0.01238  1.0000
  C   C30       1.0  0.35495  0.15956  0.00999  1.0000
  O   O17       1.0  0.32257  0.15973  0.01480  1.0000
  O   O18       1.0  0.35684  0.13375  0.05844  1.0000
  H   H24       1.0  0.37642  0.12720  0.05619  1.0000
  C   C31       1.0  0.78963  0.20125  0.27743  1.0000
  C   C32       1.0  0.81112  0.17946  0.27716  1.0000
  H   H25       1.0  0.81486  0.16815  0.21723  1.0000
  H   H26       1.0  0.77843  0.20514  0.21747  1.0000
  O   O19       1.0  0.80260  0.23366  0.01202  1.0000
  C   C33       1.0  0.84673  0.18975  0.00999  1.0000
  O   O20       1.0  0.84638  0.15708  0.01442  1.0000
  O   O21       1.0  0.87288  0.21748  0.05772  1.0000
  H   H27       1.0  0.87948  0.24363  0.05541  1.0000
  C   C34       1.0  0.22582  0.17770  0.34390  1.0000
  C   C35       1.0  0.20639  0.18033  0.26418  1.0000
  C   C36       1.0  0.18403  0.20188  0.26224  1.0000
  C   C37       1.0  0.18081  0.22111  0.34237  1.0000
  N   N3        1.0  0.16747  0.20389  0.18121  1.0000
  C   C38       1.0  0.17140  0.18646  0.10408  1.0000
  C   C39       1.0  0.19338  0.16508  0.10610  1.0000
  N   N4        1.0  0.20989  0.16329  0.18623  1.0000
  O   O22       1.0  0.15515  0.19103  0.02625  1.0000
  H   H28       1.0  0.15269  0.21895  0.17661  1.0000
  C   C40       1.0  0.19962  0.14732  0.03000  1.0000
  O   O23       1.0  0.23192  0.14711  0.02302  1.0000
  C   C41       1.0  0.80458  0.97645  0.26228  1.0000
  C   C42       1.0  0.78535  0.95400  0.34242  1.0000
  N   N5        1.0  0.80254  0.95786  0.18126  1.0000
  C   C43       1.0  0.81994  0.97923  0.10410  1.0000
  O   O24       1.0  0.81534  0.95840  0.02626  1.0000
  H   H29       1.0  0.78745  0.92803  0.17664  1.0000
  C   C44       1.0  0.96406  0.78067  0.34395  1.0000
  C   C45       1.0  0.98613  0.80011  0.26424  1.0000
  C   C46       1.0  0.03003  0.82246  0.26230  1.0000
  C   C47       1.0  0.05248  0.82566  0.34242  1.0000
  N   N6        1.0  0.04861  0.83903  0.18128  1.0000
  C   C48       1.0  0.02725  0.83509  0.10414  1.0000
  C   C49       1.0  0.98389  0.81313  0.10616  1.0000
  N   N7        1.0  0.96559  0.79662  0.18629  1.0000
  O   O25       1.0  0.04807  0.85132  0.02630  1.0000
  H   H30       1.0  0.07844  0.85376  0.17666  1.0000
  C   C50       1.0  0.95989  0.80687  0.03005  1.0000
  O   O26       1.0  0.92736  0.77457  0.02311  1.0000
  C   C51       1.0  0.78666  0.82284  0.34397  1.0000
  C   C52       1.0  0.80603  0.82014  0.26422  1.0000
  C   C53       1.0  0.82837  0.79858  0.26228  1.0000
  C   C54       1.0  0.83161  0.77937  0.34244  1.0000
  N   N8        1.0  0.84490  0.79653  0.18124  1.0000
  C   C55       1.0  0.84094  0.81393  0.10409  1.0000
  C   C56       1.0  0.81897  0.83531  0.10609  1.0000
  N   N9        1.0  0.80251  0.83716  0.18626  1.0000
  O   O27       1.0  0.85719  0.80936  0.02626  1.0000
  H   H31       1.0  0.85965  0.78145  0.17663  1.0000
  C   C57       1.0  0.81279  0.85307  0.02987  1.0000
  O   O28       1.0  0.78038  0.85311  0.02336  1.0000
  C   C58       1.0  0.18364  0.95812  0.34393  1.0000
  C   C59       1.0  0.18630  0.98019  0.26420  1.0000
  C   C60       1.0  0.17107  0.97796  0.10611  1.0000
  N   N10       1.0  0.16925  0.95965  0.18624  1.0000
  C   C61       1.0  0.15330  0.95396  0.03001  1.0000
  O   O29       1.0  0.15306  0.92143  0.02304  1.0000
  C   C62       1.0  0.04836  0.21984  0.34390  1.0000
  C   C63       1.0  0.02629  0.20042  0.26419  1.0000
  C   C64       1.0  0.98238  0.17808  0.26225  1.0000
  C   C65       1.0  0.95994  0.17488  0.34238  1.0000
  N   N11       1.0  0.96380  0.16150  0.18124  1.0000
  C   C66       1.0  0.98516  0.16544  0.10409  1.0000
  C   C67       1.0  0.02852  0.18740  0.10610  1.0000
  N   N12       1.0  0.04682  0.20390  0.18624  1.0000
  O   O30       1.0  0.96434  0.14915  0.02628  1.0000
  H   H32       1.0  0.93397  0.14676  0.17663  1.0000
  C   C68       1.0  0.05245  0.19356  0.02989  1.0000
  O   O31       1.0  0.08490  0.22597  0.02333  1.0000
  C   C69       1.0  0.22802  0.57399  0.32856  1.0000
  C   C70       1.0  0.23177  0.59508  0.24675  1.0000
  C   C71       1.0  0.23215  0.63313  0.24429  1.0000
  C   C72       1.0  0.22879  0.65119  0.32609  1.0000
  N   N13       1.0  0.23709  0.65165  0.16179  1.0000
  C   C73       1.0  0.24061  0.63477  0.08334  1.0000
  C   C74       1.0  0.24063  0.59732  0.08634  1.0000
  N   N14       1.0  0.23621  0.57930  0.16787  1.0000
  O   O32       1.0  0.24341  0.65373  0.00374  1.0000
  H   H33       1.0  0.23672  0.67732  0.15739  1.0000
  C   C75       1.0  0.24199  0.57717  0.00960  1.0000
  O   O33       1.0  0.26741  0.56600  0.00843  1.0000
  C   C76       1.0  0.43254  0.64821  0.32637  1.0000
  C   C77       1.0  0.41125  0.63062  0.24494  1.0000
  C   C78       1.0  0.37329  0.59284  0.24323  1.0000
  C   C79       1.0  0.35559  0.57177  0.32548  1.0000
  N   N15       1.0  0.35457  0.57890  0.16108  1.0000
  C   C80       1.0  0.37113  0.59908  0.08226  1.0000
  C   C81       1.0  0.40843  0.63673  0.08454  1.0000
  N   N16       1.0  0.42669  0.65066  0.16574  1.0000
  O   O34       1.0  0.35204  0.58256  0.00298  1.0000
  H   H34       1.0  0.32896  0.55275  0.15722  1.0000
  C   C82       1.0  0.42804  0.65814  0.00728  1.0000
  O   O35       1.0  0.43629  0.69396  0.00529  1.0000
  C   C83       1.0  0.35841  0.77884  0.32729  1.0000
  C   C84       1.0  0.37571  0.77525  0.24535  1.0000
  C   C85       1.0  0.41337  0.77485  0.24270  1.0000
  C   C86       1.0  0.43476  0.77797  0.32437  1.0000
  N   N17       1.0  0.42698  0.77014  0.16006  1.0000
  C   C87       1.0  0.40658  0.76675  0.08169  1.0000
  C   C88       1.0  0.36904  0.76660  0.08494  1.0000
  N   N18       1.0  0.35544  0.77086  0.16660  1.0000
  O   O36       1.0  0.42278  0.76418  0.00195  1.0000
  H   H35       1.0  0.45303  0.77050  0.15553  1.0000
  C   C89       1.0  0.34738  0.76507  0.00833  1.0000
  O   O37       1.0  0.31083  0.73947  0.00732  1.0000
  C   C90       1.0  0.78469  0.42658  0.32751  1.0000
  C   C91       1.0  0.78102  0.40571  0.24545  1.0000
  C   C92       1.0  0.78065  0.36767  0.24279  1.0000
  C   C93       1.0  0.78387  0.34944  0.32443  1.0000
  N   N19       1.0  0.77589  0.34933  0.16016  1.0000
  C   C94       1.0  0.77250  0.36635  0.08179  1.0000
  C   C95       1.0  0.77235  0.40374  0.08504  1.0000
  N   N20       1.0  0.77663  0.42161  0.16669  1.0000
  O   O38       1.0  0.76996  0.34759  0.00204  1.0000
  H   H36       1.0  0.77631  0.32367  0.15561  1.0000
  C   C96       1.0  0.77096  0.42395  0.00842  1.0000
  O   O39       1.0  0.74550  0.43508  0.00738  1.0000
  C   C97       1.0  0.57998  0.35225  0.32789  1.0000
  C   C98       1.0  0.60112  0.36950  0.24609  1.0000
  C   C99       1.0  0.63915  0.40720  0.24371  1.0000
  C   C100      1.0  0.65705  0.42861  0.32559  1.0000
  N   N21       1.0  0.65772  0.42077  0.16126  1.0000
  C   C101      1.0  0.64091  0.40036  0.08279  1.0000
  C   C102      1.0  0.60348  0.36285  0.08573  1.0000
  N   N22       1.0  0.58541  0.34926  0.16721  1.0000
  O   O40       1.0  0.65988  0.41654  0.00321  1.0000
  H   H37       1.0  0.68338  0.44685  0.15690  1.0000
  C   C103      1.0  0.58339  0.34134  0.00896  1.0000
  O   O41       1.0  0.57248  0.30481  0.00763  1.0000
  C   C104      1.0  0.65413  0.22187  0.32646  1.0000
  C   C105      1.0  0.63669  0.22557  0.24481  1.0000
  C   C106      1.0  0.59893  0.22578  0.24286  1.0000
  C   C107      1.0  0.57772  0.22245  0.32489  1.0000
  N   N23       1.0  0.58509  0.23056  0.16059  1.0000
  C   C108      1.0  0.60534  0.23414  0.08189  1.0000
  C   C109      1.0  0.64296  0.23445  0.08441  1.0000
  N   N24       1.0  0.65680  0.23012  0.16573  1.0000
  O   O42       1.0  0.58889  0.23669  0.00248  1.0000
  H   H38       1.0  0.55896  0.23006  0.15654  1.0000
  C   C110      1.0  0.66443  0.23618  0.00729  1.0000
  O   O43       1.0  0.70037  0.26350  0.00566  1.0000
  C   C111      1.0  0.09235  0.24216  0.34683  1.0000
  C   C112      1.0  0.11494  0.22126  0.34301  1.0000
  C   C113      1.0  0.15846  0.24275  0.34631  1.0000
  C   C114      1.0  0.17938  0.28617  0.35271  1.0000
  C   C115      1.0  0.15777  0.30807  0.35460  1.0000
  C   C116      1.0  0.11428  0.28562  0.35226  1.0000
  H   H39       1.0  0.21086  0.30215  0.35393  1.0000
  H   H40       1.0  0.09835  0.30117  0.35366  1.0000
  H   H41       1.0  0.09944  0.18983  0.33881  1.0000
  C   C117      1.0  0.76433  0.84450  0.34692  1.0000
  C   C118      1.0  0.78522  0.88799  0.34309  1.0000
  C   C119      1.0  0.76371  0.91001  0.34638  1.0000
  C   C120      1.0  0.72029  0.88749  0.35281  1.0000
  C   C121      1.0  0.69841  0.84398  0.35466  1.0000
  C   C122      1.0  0.72088  0.82296  0.35231  1.0000
  H   H42       1.0  0.70430  0.90298  0.35394  1.0000
  H   H43       1.0  0.70534  0.79148  0.35368  1.0000
  H   H44       1.0  0.81665  0.90394  0.33889  1.0000
  C   C123      1.0  0.16198  0.91413  0.34686  1.0000
  C   C124      1.0  0.11849  0.89153  0.34302  1.0000
  C   C125      1.0  0.09648  0.84801  0.34637  1.0000
  C   C126      1.0  0.11899  0.82711  0.35285  1.0000
  C   C127      1.0  0.16250  0.84873  0.35468  1.0000
  C   C128      1.0  0.18352  0.89223  0.35230  1.0000
  H   H45       1.0  0.10350  0.79563  0.35402  1.0000
  H   H46       1.0  0.21500  0.90816  0.35368  1.0000
  H   H47       1.0  0.10254  0.90702  0.33884  1.0000
  C   C129      1.0  0.92007  0.75834  0.34689  1.0000
  C   C130      1.0  0.89747  0.77923  0.34304  1.0000
  C   C131      1.0  0.85396  0.75773  0.34638  1.0000
  C   C132      1.0  0.83305  0.71431  0.35285  1.0000
  C   C133      1.0  0.85466  0.69242  0.35473  1.0000
  C   C134      1.0  0.89816  0.71488  0.35235  1.0000
  H   H48       1.0  0.80156  0.69832  0.35407  1.0000
  H   H49       1.0  0.91409  0.69934  0.35377  1.0000
  H   H50       1.0  0.91296  0.81066  0.33885  1.0000
  C   C135      1.0  0.24815  0.15604  0.34685  1.0000
  C   C136      1.0  0.31406  0.15655  0.35470  1.0000
  C   C137      1.0  0.29160  0.17758  0.35231  1.0000
  H   H51       1.0  0.30715  0.20906  0.35374  1.0000
  C   C138      1.0  0.91595  0.15253  0.34634  1.0000
  C   C139      1.0  0.89343  0.17343  0.35275  1.0000
  C   C140      1.0  0.84992  0.15181  0.35466  1.0000
  H   H52       1.0  0.90893  0.20492  0.35395  1.0000
  C   C141      1.0  0.31224  0.54856  0.33350  1.0000
  C   C142      1.0  0.29022  0.56978  0.32585  1.0000
  C   C143      1.0  0.24707  0.54974  0.33555  1.0000
  C   C144      1.0  0.22538  0.50674  0.34945  1.0000
  C   C145      1.0  0.24638  0.48416  0.35360  1.0000
  C   C146      1.0  0.28995  0.50565  0.34858  1.0000
  H   H53       1.0  0.19397  0.49160  0.35335  1.0000
  H   H54       1.0  0.30545  0.48971  0.35147  1.0000
  H   H55       1.0  0.30623  0.60105  0.31638  1.0000
  C   C147      1.0  0.45802  0.75788  0.33145  1.0000
  C   C148      1.0  0.43686  0.71467  0.32284  1.0000
  C   C149      1.0  0.45683  0.69153  0.33321  1.0000
  C   C150      1.0  0.49974  0.71279  0.34833  1.0000
  C   C151      1.0  0.52232  0.75636  0.35298  1.0000
  C   C152      1.0  0.50084  0.77844  0.34781  1.0000
  H   H56       1.0  0.51485  0.69649  0.35259  1.0000
  H   H57       1.0  0.51675  0.80987  0.35151  1.0000
  H   H58       1.0  0.40563  0.69944  0.31285  1.0000
  C   C153      1.0  0.24881  0.69453  0.33328  1.0000
  C   C154      1.0  0.29204  0.71660  0.32517  1.0000
  C   C155      1.0  0.31511  0.75974  0.33481  1.0000
  C   C156      1.0  0.29378  0.78140  0.34879  1.0000
  C   C157      1.0  0.25022  0.76035  0.35356  1.0000
  C   C158      1.0  0.22819  0.71677  0.34906  1.0000
  H   H59       1.0  0.31003  0.81282  0.35242  1.0000
  H   H60       1.0  0.19675  0.70123  0.35239  1.0000
  H   H61       1.0  0.30732  0.70062  0.31548  1.0000
  C   C159      1.0  0.70040  0.45193  0.33286  1.0000
  C   C160      1.0  0.72247  0.43077  0.32482  1.0000
  C   C161      1.0  0.76561  0.45082  0.33464  1.0000
  C   C162      1.0  0.78725  0.49379  0.34903  1.0000
  C   C163      1.0  0.76621  0.51631  0.35358  1.0000
  C   C164      1.0  0.72264  0.49478  0.34884  1.0000
  H   H62       1.0  0.81867  0.50895  0.35276  1.0000
  H   H63       1.0  0.70711  0.51069  0.35210  1.0000
  H   H64       1.0  0.70650  0.39952  0.31509  1.0000
  C   C165      1.0  0.55451  0.24257  0.33286  1.0000
  C   C166      1.0  0.57571  0.28581  0.32480  1.0000
  C   C167      1.0  0.55570  0.30894  0.33484  1.0000
  C   C168      1.0  0.51275  0.28765  0.34945  1.0000
  C   C169      1.0  0.49017  0.24408  0.35363  1.0000
  C   C170      1.0  0.51164  0.22198  0.34854  1.0000
  H   H65       1.0  0.49762  0.30394  0.35339  1.0000
  H   H66       1.0  0.49569  0.19054  0.35151  1.0000
  H   H67       1.0  0.60696  0.30105  0.31509  1.0000
  C   C171      1.0  0.76380  0.30609  0.33159  1.0000
  C   C172      1.0  0.72059  0.28403  0.32299  1.0000
  C   C173      1.0  0.69745  0.24092  0.33338  1.0000
  C   C174      1.0  0.71873  0.21927  0.34848  1.0000
  C   C175      1.0  0.76230  0.24028  0.35308  1.0000
  C   C176      1.0  0.78437  0.28385  0.34802  1.0000
  H   H68       1.0  0.70244  0.18787  0.35262  1.0000
  H   H69       1.0  0.81580  0.29937  0.35157  1.0000
  H   H70       1.0  0.70535  0.30002  0.31306  1.0000
  C   C177      1.0  0.17954  0.35199  0.35748  1.0000
  C   C178      1.0  0.19582  0.37422  0.43868  1.0000
  C   C179      1.0  0.21795  0.41812  0.44016  1.0000
  C   C180      1.0  0.22397  0.44028  0.35829  1.0000
  N   N25       1.0  0.23198  0.43705  0.52198  1.0000
  C   C181      1.0  0.22564  0.41594  0.60058  1.0000
  C   C182      1.0  0.20384  0.37257  0.59914  1.0000
  N   N26       1.0  0.18995  0.35392  0.51805  1.0000
  H   H71       1.0  0.24677  0.46692  0.52580  1.0000
  C   C183      1.0  0.65449  0.82180  0.35741  1.0000
  C   C184      1.0  0.63219  0.81578  0.43855  1.0000
  C   C185      1.0  0.58829  0.79396  0.43988  1.0000
  C   C186      1.0  0.56619  0.77782  0.35794  1.0000
  N   N27       1.0  0.56930  0.78901  0.52163  1.0000
  C   C187      1.0  0.59034  0.80376  0.60030  1.0000
  C   C188      1.0  0.63371  0.82535  0.59903  1.0000
  N   N28       1.0  0.65243  0.83019  0.51798  1.0000
  H   H72       1.0  0.53943  0.77393  0.52534  1.0000
  C   C189      1.0  0.18468  0.82699  0.35753  1.0000
  C   C190      1.0  0.19060  0.81067  0.43870  1.0000
  C   C191      1.0  0.21245  0.78861  0.44016  1.0000
  C   C192      1.0  0.22870  0.78271  0.35831  1.0000
  N   N29       1.0  0.21733  0.77455  0.52196  1.0000
  C   C193      1.0  0.20248  0.78080  0.60054  1.0000
  C   C194      1.0  0.18086  0.80254  0.59913  1.0000
  N   N30       1.0  0.17611  0.81646  0.51806  1.0000
  H   H73       1.0  0.23244  0.75979  0.52577  1.0000
  C   C195      1.0  0.83291  0.64850  0.35759  1.0000
  C   C196      1.0  0.81659  0.62625  0.43876  1.0000
  C   C197      1.0  0.79452  0.58234  0.44021  1.0000
  C   C198      1.0  0.78859  0.56020  0.35835  1.0000
  N   N31       1.0  0.78046  0.56340  0.52200  1.0000
  C   C199      1.0  0.78674  0.58449  0.60060  1.0000
  C   C200      1.0  0.80849  0.62786  0.59919  1.0000
  N   N32       1.0  0.82240  0.64653  0.51812  1.0000
  H   H74       1.0  0.76570  0.53353  0.52582  1.0000
  C   C201      1.0  0.35799  0.17871  0.35759  1.0000
  C   C202      1.0  0.38022  0.18464  0.43878  1.0000
  C   C203      1.0  0.42413  0.20644  0.44024  1.0000
  C   C204      1.0  0.44629  0.22262  0.35839  1.0000
  N   N33       1.0  0.44306  0.21132  0.52205  1.0000
  C   C205      1.0  0.42196  0.19653  0.60064  1.0000
  C   C206      1.0  0.37859  0.17494  0.59922  1.0000
  N   N34       1.0  0.35993  0.17019  0.51814  1.0000
  H   H75       1.0  0.47293  0.22640  0.52586  1.0000
  C   C207      1.0  0.82774  0.17355  0.35744  1.0000
  C   C208      1.0  0.82174  0.18984  0.43859  1.0000
  C   C209      1.0  0.79992  0.21192  0.43994  1.0000
  C   C210      1.0  0.78377  0.21788  0.35802  1.0000
  N   N35       1.0  0.79499  0.22597  0.52170  1.0000
  C   C211      1.0  0.80976  0.21968  0.60035  1.0000
  C   C212      1.0  0.83135  0.19790  0.59905  1.0000
  N   N36       1.0  0.83617  0.18401  0.51800  1.0000
  H   H76       1.0  0.77991  0.24076  0.52543  1.0000
  C   C213      1.0  0.20081  0.21885  0.42125  1.0000
  C   C214      1.0  0.22290  0.19764  0.42199  1.0000
  H   H77       1.0  0.23651  0.19642  0.48090  1.0000
  H   H78       1.0  0.19907  0.23237  0.47983  1.0000
  O   O44       1.0  0.17075  0.12034  0.65267  1.0000
  C   C215      1.0  0.78764  0.97627  0.42131  1.0000
  H   H79       1.0  0.77411  0.96100  0.47989  1.0000
  C   C216      1.0  0.03021  0.80565  0.42129  1.0000
  C   C217      1.0  0.98692  0.78357  0.42203  1.0000
  H   H80       1.0  0.97209  0.76994  0.48093  1.0000
  H   H81       1.0  0.04548  0.80736  0.47986  1.0000
  O   O45       1.0  0.96180  0.83573  0.65264  1.0000
  H   H82       1.0  0.98138  0.86177  0.65750  1.0000
  C   C218      1.0  0.81166  0.78170  0.42135  1.0000
  C   C219      1.0  0.78959  0.80292  0.42208  1.0000
  H   H83       1.0  0.77601  0.80417  0.48101  1.0000
  H   H84       1.0  0.81341  0.76817  0.47993  1.0000
  O   O46       1.0  0.84166  0.88036  0.65322  1.0000
  H   H85       1.0  0.86771  0.88685  0.65808  1.0000
  C   C220      1.0  0.20359  0.98097  0.42201  1.0000
  H   H86       1.0  0.20236  0.96615  0.48093  1.0000
  O   O47       1.0  0.12633  0.95587  0.65266  1.0000
  H   H87       1.0  0.11989  0.97546  0.65754  1.0000
  C   C221      1.0  0.98222  0.19488  0.42125  1.0000
  C   C222      1.0  0.02551  0.21695  0.42198  1.0000
  H   H88       1.0  0.04034  0.23056  0.48089  1.0000
  H   H89       1.0  0.96695  0.19316  0.47982  1.0000
  O   O48       1.0  0.05087  0.16468  0.65327  1.0000
  H   H90       1.0  0.03130  0.13863  0.65817  1.0000
  C   C223      1.0  0.22282  0.62899  0.40724  1.0000
  C   C224      1.0  0.22278  0.59145  0.40833  1.0000
  H   H91       1.0  0.22412  0.57961  0.46953  1.0000
  H   H92       1.0  0.22428  0.64266  0.46804  1.0000
  O   O49       1.0  0.20939  0.55309  0.63822  1.0000
  H   H93       1.0  0.18719  0.55568  0.63680  1.0000
  C   C225      1.0  0.37783  0.58842  0.40641  1.0000
  C   C226      1.0  0.41550  0.62581  0.40676  1.0000
  H   H94       1.0  0.42743  0.63927  0.46770  1.0000
  H   H95       1.0  0.36433  0.57635  0.46744  1.0000
  O   O50       1.0  0.45411  0.65190  0.63824  1.0000
  H   H96       1.0  0.45338  0.62794  0.63807  1.0000
  C   C227      1.0  0.41846  0.78367  0.40579  1.0000
  C   C228      1.0  0.38099  0.78377  0.40713  1.0000
  H   H97       1.0  0.36776  0.78209  0.46845  1.0000
  H   H98       1.0  0.43056  0.78189  0.46648  1.0000
  O   O51       1.0  0.35570  0.79757  0.63675  1.0000
  H   H99       1.0  0.38043  0.81986  0.63524  1.0000
  C   C229      1.0  0.78963  0.37146  0.40584  1.0000
  C   C230      1.0  0.78986  0.40910  0.40728  1.0000
  H   H100      1.0  0.78828  0.42071  0.46859  1.0000
  H   H101      1.0  0.78811  0.35764  0.46647  1.0000
  O   O52       1.0  0.80353  0.44803  0.63693  1.0000
  H   H102      1.0  0.82575  0.44548  0.63547  1.0000
  C   C231      1.0  0.63476  0.41251  0.40667  1.0000
  C   C232      1.0  0.59721  0.37500  0.40769  1.0000
  H   H103      1.0  0.58527  0.36186  0.46885  1.0000
  H   H104      1.0  0.64836  0.42478  0.46749  1.0000
  O   O53       1.0  0.55907  0.34963  0.63789  1.0000
  H   H105      1.0  0.56146  0.37433  0.63662  1.0000
  C   C233      1.0  0.59429  0.21681  0.40597  1.0000
  C   C234      1.0  0.63166  0.21651  0.40669  1.0000
  H   H106      1.0  0.64505  0.21804  0.46772  1.0000
  H   H107      1.0  0.58214  0.21823  0.46691  1.0000
  O   O54       1.0  0.65791  0.20385  0.63791  1.0000
  H   H108      1.0  0.63383  0.18075  0.63750  1.0000
