data_image0
_chemical_formula_structural       C3NC3NC5NC5NC20H18N4C3NC3NC5NC5NC20H18N4C3NC3NC5NC5NC20H18N4C3NC3NC5NC5NC20H18N4C3NC3NC5NC5NC20H18N4C3NC3NC5NC5NC20H18N4C3H2CHC3H2CHC3H2CHC3H2CHC3H2CHC3H2CHC3H2CHC3H2CHC3H2CHC3H2CHC3H2CHC3H2CHC8H8C8H8C8H8C8H8C8H8C8H8C3NC2NH2CHC3NC2NH2CHC3NC2NH2CHC3NC2NH2CHC3NC2NH2CHC3NC2NH2CHC3NC2NH2CHC3NC2NH2CHC3NC2NH2CHC3NC2NH2CHC3NC2NH2CHC3NC2NH2CH
_chemical_formula_sum              "C384 N72 H228"
_cell_length_a       69.3741
_cell_length_b       69.3741
_cell_length_c       14.8829
_cell_angle_alpha    90.0046
_cell_angle_beta     89.9098
_cell_angle_gamma    120

_space_group_name_H-M_alt    "P 1"
_space_group_IT_number       1

loop_
  _space_group_symop_operation_xyz
  'x, y, z'

loop_
  _atom_site_type_symbol
  _atom_site_label
  _atom_site_symmetry_multiplicity
  _atom_site_fract_x
  _atom_site_fract_y
  _atom_site_fract_z
  _atom_site_occupancy
  C   C1        1.0  0.21305  0.37794  0.32298  1.0000
  C   C2        1.0  0.23299  0.37791  0.32311  1.0000
  C   C3        1.0  0.25042  0.39996  0.32214  1.0000
  N   N1        1.0  0.24031  0.41244  0.32141  1.0000
  C   C4        1.0  0.21772  0.40000  0.32192  1.0000
  C   C5        1.0  0.20141  0.40681  0.32120  1.0000
  C   C6        1.0  0.20645  0.42938  0.31990  1.0000
  N   N2        1.0  0.22671  0.44802  0.31945  1.0000
  C   C7        1.0  0.22524  0.46675  0.31821  1.0000
  C   C8        1.0  0.20255  0.45971  0.31768  1.0000
  C   C9        1.0  0.19100  0.43673  0.31913  1.0000
  C   C10       1.0  0.24286  0.48920  0.31771  1.0000
  C   C11       1.0  0.26589  0.49592  0.31968  1.0000
  N   N3        1.0  0.27587  0.48337  0.32050  1.0000
  C   C12       1.0  0.29838  0.49587  0.32305  1.0000
  C   C13       1.0  0.30312  0.51797  0.32363  1.0000
  C   C14       1.0  0.28327  0.51800  0.32183  1.0000
  C   C15       1.0  0.31466  0.48911  0.32454  1.0000
  C   C16       1.0  0.30978  0.46665  0.32370  1.0000
  N   N4        1.0  0.28955  0.44796  0.32284  1.0000
  C   C17       1.0  0.29111  0.42928  0.32259  1.0000
  C   C18       1.0  0.31390  0.43657  0.32312  1.0000
  C   C19       1.0  0.32538  0.45955  0.32417  1.0000
  C   C20       1.0  0.27352  0.40673  0.32226  1.0000
  C   C21       1.0  0.27990  0.39001  0.32289  1.0000
  C   C22       1.0  0.29935  0.36197  0.32271  1.0000
  C   C23       1.0  0.29315  0.36801  0.24168  1.0000
  C   C24       1.0  0.28368  0.38189  0.24152  1.0000
  C   C25       1.0  0.33748  0.50624  0.32749  1.0000
  C   C26       1.0  0.38107  0.54422  0.33164  1.0000
  C   C27       1.0  0.37123  0.53373  0.24926  1.0000
  C   C28       1.0  0.34966  0.51500  0.24717  1.0000
  C   C29       1.0  0.23722  0.50637  0.31662  1.0000
  C   C30       1.0  0.23833  0.51757  0.23577  1.0000
  C   C31       1.0  0.23570  0.53642  0.23648  1.0000
  C   C32       1.0  0.23174  0.54446  0.31752  1.0000
  C   C33       1.0  0.17829  0.39013  0.32283  1.0000
  C   C34       1.0  0.16561  0.38361  0.24287  1.0000
  C   C35       1.0  0.13085  0.36222  0.32856  1.0000
  C   C36       1.0  0.14226  0.36984  0.24566  1.0000
  H   H1        1.0  0.13363  0.36611  0.18664  1.0000
  H   H2        1.0  0.17323  0.38960  0.18213  1.0000
  H   H3        1.0  0.19769  0.36392  0.32347  1.0000
  H   H4        1.0  0.23431  0.36388  0.32392  1.0000
  H   H5        1.0  0.24832  0.42842  0.32047  1.0000
  H   H6        1.0  0.26787  0.46740  0.31900  1.0000
  H   H7        1.0  0.17403  0.42718  0.31941  1.0000
  H   H8        1.0  0.19535  0.46945  0.31688  1.0000
  H   H9        1.0  0.24193  0.51260  0.17638  1.0000
  H   H10       1.0  0.23720  0.54458  0.17725  1.0000
  H   H11       1.0  0.28208  0.53210  0.32234  1.0000
  H   H12       1.0  0.31843  0.53205  0.32523  1.0000
  H   H13       1.0  0.32127  0.42698  0.32316  1.0000
  H   H14       1.0  0.34233  0.46926  0.32490  1.0000
  H   H15       1.0  0.34262  0.50826  0.18640  1.0000
  H   H16       1.0  0.37933  0.54003  0.18975  1.0000
  H   H17       1.0  0.28027  0.38667  0.18131  1.0000
  H   H18       1.0  0.29616  0.36289  0.18140  1.0000
  N   N5        1.0  0.40080  0.56269  0.33909  1.0000
  N   N6        1.0  0.23085  0.56321  0.31329  1.0000
  N   N7        1.0  0.10867  0.35035  0.33749  1.0000
  N   N8        1.0  0.30949  0.34983  0.31658  1.0000
  C   C37       1.0  0.69255  0.83707  0.32410  1.0000
  C   C38       1.0  0.69257  0.85704  0.32414  1.0000
  C   C39       1.0  0.67052  0.85242  0.32316  1.0000
  N   N9        1.0  0.65804  0.82983  0.32248  1.0000
  C   C40       1.0  0.67048  0.81968  0.32305  1.0000
  C   C41       1.0  0.66367  0.79656  0.32240  1.0000
  C   C42       1.0  0.64110  0.77903  0.32111  1.0000
  N   N10       1.0  0.62246  0.78065  0.32064  1.0000
  C   C43       1.0  0.60373  0.76045  0.31946  1.0000
  C   C44       1.0  0.61078  0.74480  0.31896  1.0000
  C   C45       1.0  0.63375  0.75623  0.32040  1.0000
  C   C46       1.0  0.58128  0.75561  0.31897  1.0000
  C   C47       1.0  0.57457  0.77193  0.32081  1.0000
  N   N11       1.0  0.58711  0.79445  0.32160  1.0000
  C   C48       1.0  0.57461  0.80447  0.32407  1.0000
  C   C49       1.0  0.55251  0.78711  0.32463  1.0000
  C   C50       1.0  0.55248  0.76724  0.32291  1.0000
  C   C51       1.0  0.58137  0.82751  0.32547  1.0000
  C   C52       1.0  0.60384  0.84509  0.32461  1.0000
  N   N12       1.0  0.62253  0.84355  0.32383  1.0000
  C   C53       1.0  0.64120  0.86378  0.32353  1.0000
  C   C54       1.0  0.63392  0.87929  0.32394  1.0000
  C   C55       1.0  0.61094  0.86779  0.32496  1.0000
  C   C56       1.0  0.66376  0.86875  0.32319  1.0000
  C   C57       1.0  0.68048  0.89186  0.32374  1.0000
  C   C58       1.0  0.70855  0.93934  0.32333  1.0000
  C   C59       1.0  0.70257  0.92706  0.24237  1.0000
  C   C60       1.0  0.68870  0.90371  0.24232  1.0000
  C   C61       1.0  0.56425  0.83321  0.32825  1.0000
  C   C62       1.0  0.52627  0.83882  0.33218  1.0000
  C   C63       1.0  0.53681  0.83944  0.24984  1.0000
  C   C64       1.0  0.55555  0.83661  0.24787  1.0000
  C   C65       1.0  0.56411  0.73280  0.31787  1.0000
  C   C66       1.0  0.55297  0.72271  0.23702  1.0000
  C   C67       1.0  0.53412  0.70123  0.23771  1.0000
  C   C68       1.0  0.52601  0.68924  0.31877  1.0000
  C   C69       1.0  0.68035  0.79012  0.32404  1.0000
  C   C70       1.0  0.68693  0.78396  0.24406  1.0000
  C   C71       1.0  0.70823  0.77056  0.32977  1.0000
  C   C72       1.0  0.70066  0.77435  0.24688  1.0000
  H   H19       1.0  0.70445  0.76947  0.18785  1.0000
  H   H20       1.0  0.68096  0.78557  0.18333  1.0000
  H   H21       1.0  0.70656  0.83572  0.32461  1.0000
  H   H22       1.0  0.70660  0.87238  0.32494  1.0000
  H   H23       1.0  0.64206  0.82186  0.32152  1.0000
  H   H24       1.0  0.60309  0.80243  0.32019  1.0000
  H   H25       1.0  0.64330  0.74881  0.32076  1.0000
  H   H26       1.0  0.60103  0.72786  0.31827  1.0000
  H   H27       1.0  0.55798  0.73128  0.17763  1.0000
  H   H28       1.0  0.52600  0.69457  0.17850  1.0000
  H   H29       1.0  0.53839  0.75194  0.32348  1.0000
  H   H30       1.0  0.53844  0.78834  0.32619  1.0000
  H   H31       1.0  0.64351  0.89625  0.32381  1.0000
  H   H32       1.0  0.60123  0.87503  0.32557  1.0000
  H   H33       1.0  0.56233  0.83629  0.18714  1.0000
  H   H34       1.0  0.53056  0.84123  0.19029  1.0000
  H   H35       1.0  0.68397  0.89549  0.18216  1.0000
  H   H36       1.0  0.70779  0.93516  0.18206  1.0000
  N   N13       1.0  0.50777  0.84006  0.33950  1.0000
  N   N14       1.0  0.50727  0.66961  0.31454  1.0000
  N   N15       1.0  0.72012  0.76027  0.33870  1.0000
  N   N16       1.0  0.72072  0.96161  0.31707  1.0000
  C   C73       1.0  0.23341  0.85743  0.32209  1.0000
  C   C74       1.0  0.21345  0.83748  0.32208  1.0000
  C   C75       1.0  0.21807  0.82006  0.32113  1.0000
  N   N17       1.0  0.24066  0.83017  0.32051  1.0000
  C   C76       1.0  0.25081  0.85276  0.32110  1.0000
  C   C77       1.0  0.27393  0.86906  0.32051  1.0000
  C   C78       1.0  0.29146  0.86402  0.31933  1.0000
  N   N18       1.0  0.28984  0.84377  0.31884  1.0000
  C   C79       1.0  0.31004  0.84523  0.31779  1.0000
  C   C80       1.0  0.32568  0.86792  0.31743  1.0000
  C   C81       1.0  0.31426  0.87948  0.31878  1.0000
  C   C82       1.0  0.31488  0.82762  0.31730  1.0000
  C   C83       1.0  0.29856  0.80459  0.31904  1.0000
  N   N19       1.0  0.27604  0.79461  0.31973  1.0000
  C   C84       1.0  0.26602  0.77209  0.32215  1.0000
  C   C85       1.0  0.28337  0.76735  0.32276  1.0000
  C   C86       1.0  0.30325  0.78720  0.32112  1.0000
  C   C87       1.0  0.24297  0.75581  0.32352  1.0000
  C   C88       1.0  0.22540  0.76070  0.32264  1.0000
  N   N20       1.0  0.22693  0.78093  0.32182  1.0000
  C   C89       1.0  0.20670  0.77937  0.32150  1.0000
  C   C90       1.0  0.19120  0.75658  0.32193  1.0000
  C   C91       1.0  0.20269  0.74510  0.32297  1.0000
  C   C92       1.0  0.20173  0.79695  0.32117  1.0000
  C   C93       1.0  0.17863  0.79057  0.32171  1.0000
  C   C94       1.0  0.13115  0.77112  0.32153  1.0000
  C   C95       1.0  0.14345  0.77738  0.24050  1.0000
  C   C96       1.0  0.16680  0.78687  0.24034  1.0000
  C   C97       1.0  0.23728  0.73299  0.32637  1.0000
  C   C98       1.0  0.23165  0.68939  0.33050  1.0000
  C   C99       1.0  0.23109  0.69930  0.24810  1.0000
  C   C100      1.0  0.23393  0.72087  0.24604  1.0000
  C   C101      1.0  0.33769  0.83326  0.31642  1.0000
  C   C102      1.0  0.34789  0.83223  0.23571  1.0000
  C   C103      1.0  0.36938  0.83488  0.23664  1.0000
  C   C104      1.0  0.38124  0.83872  0.31784  1.0000
  C   C105      1.0  0.28036  0.89218  0.32224  1.0000
  C   C106      1.0  0.28663  0.90494  0.24234  1.0000
  C   C107      1.0  0.29992  0.93963  0.32821  1.0000
  C   C108      1.0  0.29622  0.92829  0.24527  1.0000
  H   H37       1.0  0.30116  0.93698  0.18629  1.0000
  H   H38       1.0  0.28507  0.89739  0.18158  1.0000
  H   H39       1.0  0.23476  0.87279  0.32260  1.0000
  H   H40       1.0  0.19810  0.83617  0.32285  1.0000
  H   H41       1.0  0.24863  0.82216  0.31958  1.0000
  H   H42       1.0  0.26806  0.80261  0.31836  1.0000
  H   H43       1.0  0.32168  0.89644  0.31917  1.0000
  H   H44       1.0  0.34263  0.87513  0.31681  1.0000
  H   H45       1.0  0.33942  0.82874  0.17618  1.0000
  H   H46       1.0  0.37612  0.83345  0.17748  1.0000
  H   H47       1.0  0.31854  0.78839  0.32175  1.0000
  H   H48       1.0  0.28214  0.75204  0.32432  1.0000
  H   H49       1.0  0.17424  0.74921  0.32183  1.0000
  H   H50       1.0  0.19546  0.72815  0.32363  1.0000
  H   H51       1.0  0.23432  0.72797  0.18527  1.0000
  H   H52       1.0  0.22937  0.69126  0.18859  1.0000
  H   H53       1.0  0.17503  0.79032  0.18015  1.0000
  H   H54       1.0  0.13536  0.77444  0.18023  1.0000
  N   N21       1.0  0.23038  0.66966  0.33793  1.0000
  N   N22       1.0  0.40089  0.83962  0.31384  1.0000
  N   N23       1.0  0.31019  0.96179  0.33727  1.0000
  N   N24       1.0  0.10888  0.76100  0.31540  1.0000
  C   C109      1.0  0.87962  0.67035  0.32391  1.0000
  C   C110      1.0  0.85967  0.67037  0.32410  1.0000
  C   C111      1.0  0.84225  0.64832  0.32330  1.0000
  N   N25       1.0  0.85235  0.63584  0.32260  1.0000
  C   C112      1.0  0.87495  0.64828  0.32295  1.0000
  C   C113      1.0  0.89125  0.64147  0.32216  1.0000
  C   C114      1.0  0.88621  0.61890  0.32101  1.0000
  N   N26       1.0  0.86595  0.60026  0.32078  1.0000
  C   C115      1.0  0.86742  0.58153  0.31966  1.0000
  C   C116      1.0  0.89011  0.58857  0.31898  1.0000
  C   C117      1.0  0.90166  0.61155  0.32022  1.0000
  C   C118      1.0  0.84980  0.55908  0.31938  1.0000
  C   C119      1.0  0.82677  0.55237  0.32141  1.0000
  N   N27       1.0  0.81679  0.56491  0.32221  1.0000
  C   C120      1.0  0.79428  0.55241  0.32485  1.0000
  C   C121      1.0  0.78953  0.53031  0.32551  1.0000
  C   C122      1.0  0.80938  0.53029  0.32365  1.0000
  C   C123      1.0  0.77799  0.55917  0.32633  1.0000
  C   C124      1.0  0.78289  0.58164  0.32539  1.0000
  N   N28       1.0  0.80311  0.60033  0.32442  1.0000
  C   C125      1.0  0.80156  0.61901  0.32406  1.0000
  C   C126      1.0  0.77877  0.61172  0.32463  1.0000
  C   C127      1.0  0.76729  0.58874  0.32580  1.0000
  C   C128      1.0  0.81914  0.64156  0.32355  1.0000
  C   C129      1.0  0.81276  0.65828  0.32405  1.0000
  C   C130      1.0  0.79335  0.68635  0.32369  1.0000
  C   C131      1.0  0.79964  0.68033  0.24271  1.0000
  C   C132      1.0  0.80914  0.66648  0.24265  1.0000
  C   C133      1.0  0.75518  0.54205  0.32932  1.0000
  C   C134      1.0  0.71159  0.50407  0.33355  1.0000
  C   C135      1.0  0.72149  0.51459  0.25115  1.0000
  C   C136      1.0  0.74307  0.53330  0.24902  1.0000
  C   C137      1.0  0.85544  0.54191  0.31828  1.0000
  C   C138      1.0  0.85438  0.53072  0.23748  1.0000
  C   C139      1.0  0.85701  0.51186  0.23824  1.0000
  C   C140      1.0  0.86089  0.50380  0.31933  1.0000
  C   C141      1.0  0.91437  0.65815  0.32356  1.0000
  C   C142      1.0  0.92708  0.66465  0.24349  1.0000
  C   C143      1.0  0.96182  0.68601  0.32883  1.0000
  C   C144      1.0  0.95043  0.67841  0.24606  1.0000
  H   H55       1.0  0.95907  0.68214  0.18694  1.0000
  H   H56       1.0  0.91948  0.65866  0.18283  1.0000
  H   H57       1.0  0.89498  0.68436  0.32424  1.0000
  H   H58       1.0  0.85836  0.68441  0.32488  1.0000
  H   H59       1.0  0.84434  0.61986  0.32171  1.0000
  H   H60       1.0  0.82480  0.58089  0.32070  1.0000
  H   H61       1.0  0.91863  0.62110  0.32038  1.0000
  H   H62       1.0  0.89731  0.57882  0.31822  1.0000
  H   H63       1.0  0.85085  0.53572  0.17806  1.0000
  H   H64       1.0  0.85556  0.50373  0.17904  1.0000
  H   H65       1.0  0.81058  0.51619  0.32427  1.0000
  H   H66       1.0  0.77423  0.51624  0.32721  1.0000
  H   H67       1.0  0.77140  0.62131  0.32454  1.0000
  H   H68       1.0  0.75033  0.57903  0.32658  1.0000
  H   H69       1.0  0.75015  0.54006  0.18824  1.0000
  H   H70       1.0  0.71345  0.50829  0.19165  1.0000
  H   H71       1.0  0.81259  0.66170  0.18247  1.0000
  H   H72       1.0  0.79673  0.68550  0.18242  1.0000
  N   N29       1.0  0.69185  0.48559  0.34102  1.0000
  N   N30       1.0  0.86179  0.48507  0.31515  1.0000
  N   N31       1.0  0.98400  0.69791  0.33755  1.0000
  N   N32       1.0  0.78321  0.69848  0.31745  1.0000
  C   C145      1.0  0.40013  0.21122  0.32445  1.0000
  C   C146      1.0  0.40011  0.19126  0.32452  1.0000
  C   C147      1.0  0.42216  0.19588  0.32380  1.0000
  N   N33       1.0  0.43464  0.21847  0.32328  1.0000
  C   C148      1.0  0.42219  0.22862  0.32367  1.0000
  C   C149      1.0  0.42901  0.25173  0.32310  1.0000
  C   C150      1.0  0.45158  0.26927  0.32207  1.0000
  N   N34       1.0  0.47022  0.26765  0.32180  1.0000
  C   C151      1.0  0.48895  0.28785  0.32079  1.0000
  C   C152      1.0  0.48191  0.30349  0.32024  1.0000
  C   C153      1.0  0.45893  0.29207  0.32144  1.0000
  C   C154      1.0  0.51140  0.29268  0.32048  1.0000
  C   C155      1.0  0.51811  0.27636  0.32245  1.0000
  N   N35       1.0  0.50557  0.25384  0.32319  1.0000
  C   C156      1.0  0.51807  0.24382  0.32572  1.0000
  C   C157      1.0  0.54016  0.26117  0.32641  1.0000
  C   C158      1.0  0.54019  0.28105  0.32468  1.0000
  C   C159      1.0  0.51130  0.22077  0.32706  1.0000
  C   C160      1.0  0.48884  0.20320  0.32599  1.0000
  N   N36       1.0  0.47015  0.20474  0.32500  1.0000
  C   C161      1.0  0.45147  0.18451  0.32451  1.0000
  C   C162      1.0  0.45876  0.16900  0.32501  1.0000
  C   C163      1.0  0.48173  0.18050  0.32631  1.0000
  C   C164      1.0  0.42892  0.17954  0.32394  1.0000
  C   C165      1.0  0.41220  0.15644  0.32426  1.0000
  C   C166      1.0  0.38415  0.10895  0.32344  1.0000
  C   C167      1.0  0.39026  0.12130  0.24257  1.0000
  C   C168      1.0  0.40413  0.14465  0.24273  1.0000
  C   C169      1.0  0.52842  0.21508  0.32995  1.0000
  C   C170      1.0  0.56641  0.20948  0.33393  1.0000
  C   C171      1.0  0.55592  0.20885  0.25159  1.0000
  C   C172      1.0  0.53719  0.21169  0.24959  1.0000
  C   C173      1.0  0.52857  0.31549  0.31949  1.0000
  C   C174      1.0  0.53980  0.32563  0.23868  1.0000
  C   C175      1.0  0.55865  0.34711  0.23946  1.0000
  C   C176      1.0  0.56666  0.35905  0.32054  1.0000
  C   C177      1.0  0.41232  0.25817  0.32451  1.0000
  C   C178      1.0  0.40589  0.26440  0.24445  1.0000
  C   C179      1.0  0.38442  0.27772  0.32985  1.0000
  C   C180      1.0  0.39212  0.27398  0.24706  1.0000
  H   H73       1.0  0.38845  0.27893  0.18799  1.0000
  H   H74       1.0  0.41195  0.26282  0.18380  1.0000
  H   H75       1.0  0.38612  0.21257  0.32479  1.0000
  H   H76       1.0  0.38607  0.17591  0.32514  1.0000
  H   H77       1.0  0.45062  0.22644  0.32254  1.0000
  H   H78       1.0  0.48959  0.24586  0.32166  1.0000
  H   H79       1.0  0.44938  0.29949  0.32164  1.0000
  H   H80       1.0  0.49166  0.32044  0.31957  1.0000
  H   H81       1.0  0.53485  0.31709  0.17925  1.0000
  H   H82       1.0  0.56682  0.35380  0.18025  1.0000
  H   H83       1.0  0.55429  0.29635  0.32526  1.0000
  H   H84       1.0  0.55424  0.25994  0.32801  1.0000
  H   H85       1.0  0.44917  0.15204  0.32488  1.0000
  H   H86       1.0  0.49145  0.17326  0.32707  1.0000
  H   H87       1.0  0.53045  0.21201  0.18885  1.0000
  H   H88       1.0  0.56222  0.20708  0.19206  1.0000
  H   H89       1.0  0.40896  0.15291  0.18263  1.0000
  H   H90       1.0  0.38518  0.11324  0.18218  1.0000
  N   N37       1.0  0.58488  0.20821  0.34128  1.0000
  N   N38       1.0  0.58540  0.37869  0.31637  1.0000
  N   N39       1.0  0.37254  0.28801  0.33862  1.0000
  N   N40       1.0  0.37201  0.08668  0.31700  1.0000
  C   C181      1.0  0.85927  0.19086  0.32357  1.0000
  C   C182      1.0  0.87923  0.21080  0.32359  1.0000
  C   C183      1.0  0.87461  0.22823  0.32270  1.0000
  N   N41       1.0  0.85202  0.21812  0.32210  1.0000
  C   C184      1.0  0.84187  0.19553  0.32265  1.0000
  C   C185      1.0  0.81876  0.17922  0.32207  1.0000
  C   C186      1.0  0.80122  0.18426  0.32097  1.0000
  N   N42       1.0  0.80284  0.20452  0.32058  1.0000
  C   C187      1.0  0.78264  0.20305  0.31957  1.0000
  C   C188      1.0  0.76700  0.18036  0.31912  1.0000
  C   C189      1.0  0.77842  0.16881  0.32038  1.0000
  C   C190      1.0  0.77780  0.22066  0.31921  1.0000
  C   C191      1.0  0.79412  0.24370  0.32100  1.0000
  N   N43       1.0  0.81664  0.25367  0.32162  1.0000
  C   C192      1.0  0.82666  0.27619  0.32410  1.0000
  C   C193      1.0  0.80930  0.28093  0.32483  1.0000
  C   C194      1.0  0.78942  0.26108  0.32320  1.0000
  C   C195      1.0  0.84970  0.29248  0.32539  1.0000
  C   C196      1.0  0.86728  0.28759  0.32441  1.0000
  N   N44       1.0  0.86574  0.26736  0.32356  1.0000
  C   C197      1.0  0.88597  0.26892  0.32315  1.0000
  C   C198      1.0  0.90148  0.29171  0.32355  1.0000
  C   C199      1.0  0.88998  0.30319  0.32467  1.0000
  C   C200      1.0  0.89095  0.25134  0.32274  1.0000
  C   C201      1.0  0.91405  0.25772  0.32324  1.0000
  C   C202      1.0  0.96153  0.27713  0.32275  1.0000
  C   C203      1.0  0.94926  0.27086  0.24181  1.0000
  C   C204      1.0  0.92591  0.26139  0.24180  1.0000
  C   C205      1.0  0.85539  0.31529  0.32826  1.0000
  C   C206      1.0  0.86101  0.35889  0.33243  1.0000
  C   C207      1.0  0.86162  0.34901  0.25002  1.0000
  C   C208      1.0  0.85878  0.32744  0.24794  1.0000
  C   C209      1.0  0.75499  0.21502  0.31837  1.0000
  C   C210      1.0  0.74487  0.21609  0.23764  1.0000
  C   C211      1.0  0.72338  0.21346  0.23859  1.0000
  C   C212      1.0  0.71143  0.20956  0.31978  1.0000
  C   C213      1.0  0.81232  0.15610  0.32366  1.0000
  C   C214      1.0  0.80616  0.14341  0.24367  1.0000
  C   C215      1.0  0.79276  0.10866  0.32932  1.0000
  C   C216      1.0  0.79654  0.12005  0.24646  1.0000
  H   H91       1.0  0.79166  0.11142  0.18742  1.0000
  H   H92       1.0  0.80776  0.15101  0.18297  1.0000
  H   H93       1.0  0.85792  0.17550  0.32405  1.0000
  H   H94       1.0  0.89458  0.21212  0.32431  1.0000
  H   H95       1.0  0.84405  0.22613  0.32121  1.0000
  H   H96       1.0  0.82462  0.24567  0.32013  1.0000
  H   H97       1.0  0.77100  0.15184  0.32072  1.0000
  H   H98       1.0  0.75005  0.17316  0.31854  1.0000
  H   H99       1.0  0.75341  0.21966  0.17816  1.0000
  H   H100      1.0  0.71671  0.21493  0.17945  1.0000
  H   H101      1.0  0.77413  0.25989  0.32390  1.0000
  H   H102      1.0  0.81053  0.29624  0.32644  1.0000
  H   H103      1.0  0.91844  0.29908  0.32336  1.0000
  H   H104      1.0  0.89722  0.32014  0.32531  1.0000
  H   H105      1.0  0.85846  0.32037  0.18716  1.0000
  H   H106      1.0  0.86340  0.35708  0.19051  1.0000
  H   H107      1.0  0.91771  0.25793  0.18165  1.0000
  H   H108      1.0  0.95737  0.27379  0.18149  1.0000
  N   N45       1.0  0.86225  0.37861  0.33987  1.0000
  N   N46       1.0  0.69179  0.20866  0.31576  1.0000
  N   N47       1.0  0.78247  0.08648  0.33823  1.0000
  N   N48       1.0  0.98380  0.28723  0.31646  1.0000
  C   C217      1.0  0.22555  0.63403  0.30898  1.0000
  C   C218      1.0  0.22717  0.62073  0.24050  1.0000
  C   C219      1.0  0.22689  0.60077  0.26018  1.0000
  H   H109      1.0  0.22779  0.59173  0.20757  1.0000
  H   H110      1.0  0.22843  0.62539  0.17443  1.0000
  C   C220      1.0  0.22530  0.65334  0.28384  1.0000
  H   H111      1.0  0.22117  0.65459  0.22106  1.0000
  C   C221      1.0  0.43645  0.59349  0.31018  1.0000
  C   C222      1.0  0.44979  0.60840  0.24173  1.0000
  C   C223      1.0  0.46974  0.62809  0.26141  1.0000
  H   H112      1.0  0.47881  0.63802  0.20882  1.0000
  H   H113      1.0  0.44518  0.60501  0.17564  1.0000
  C   C224      1.0  0.41716  0.57392  0.28502  1.0000
  H   H114      1.0  0.41595  0.56854  0.22224  1.0000
  C   C225      1.0  0.47702  0.84493  0.31032  1.0000
  C   C226      1.0  0.46218  0.84336  0.24171  1.0000
  C   C227      1.0  0.44247  0.84360  0.26120  1.0000
  H   H115      1.0  0.43259  0.84274  0.20850  1.0000
  H   H116      1.0  0.46566  0.84215  0.17567  1.0000
  C   C228      1.0  0.49663  0.84524  0.28537  1.0000
  H   H117      1.0  0.50212  0.84948  0.22270  1.0000
  C   C229      1.0  0.86711  0.41425  0.31094  1.0000
  C   C230      1.0  0.86555  0.42757  0.24245  1.0000
  C   C231      1.0  0.86579  0.44752  0.26211  1.0000
  H   H118      1.0  0.86494  0.45657  0.20949  1.0000
  H   H119      1.0  0.86434  0.42294  0.17638  1.0000
  C   C232      1.0  0.86741  0.39496  0.28582  1.0000
  H   H120      1.0  0.87164  0.39375  0.22309  1.0000
  C   C233      1.0  0.65621  0.45482  0.31212  1.0000
  C   C234      1.0  0.64293  0.43994  0.24365  1.0000
  C   C235      1.0  0.62298  0.42024  0.26332  1.0000
  H   H121      1.0  0.61396  0.41033  0.21072  1.0000
  H   H122      1.0  0.64761  0.44336  0.17757  1.0000
  C   C236      1.0  0.67553  0.47440  0.28698  1.0000
  H   H123      1.0  0.67678  0.47983  0.22424  1.0000
  C   C237      1.0  0.61567  0.20335  0.31215  1.0000
  C   C238      1.0  0.63057  0.20495  0.24356  1.0000
  C   C239      1.0  0.65026  0.20470  0.26308  1.0000
  H   H124      1.0  0.66018  0.20557  0.21039  1.0000
  H   H125      1.0  0.62715  0.20618  0.17751  1.0000
  C   C240      1.0  0.59609  0.20307  0.28716  1.0000
  H   H126      1.0  0.59067  0.19888  0.22445  1.0000
  C   C241      1.0  0.06963  0.32922  0.30949  1.0000
  C   C242      1.0  0.05302  0.32342  0.24292  1.0000
  C   C243      1.0  0.03015  0.31210  0.26408  1.0000
  H   H127      1.0  0.01908  0.30868  0.21281  1.0000
  H   H128      1.0  0.05743  0.32762  0.17702  1.0000
  C   C244      1.0  0.09213  0.34061  0.28283  1.0000
  H   H129      1.0  0.09555  0.34149  0.21758  1.0000
  C   C245      1.0  0.74124  0.74233  0.31065  1.0000
  C   C246      1.0  0.74710  0.73153  0.24406  1.0000
  C   C247      1.0  0.75844  0.72003  0.26520  1.0000
  H   H130      1.0  0.76190  0.71238  0.21391  1.0000
  H   H131      1.0  0.74294  0.73175  0.17818  1.0000
  C   C248      1.0  0.72985  0.75342  0.28400  1.0000
  H   H132      1.0  0.72895  0.75590  0.21875  1.0000
  C   C249      1.0  0.32816  0.00087  0.30950  1.0000
  C   C250      1.0  0.33903  0.01755  0.24304  1.0000
  C   C251      1.0  0.35052  0.04039  0.26436  1.0000
  H   H133      1.0  0.35821  0.05152  0.21316  1.0000
  H   H134      1.0  0.33887  0.01321  0.17712  1.0000
  C   C252      1.0  0.31711  0.97839  0.28268  1.0000
  H   H135      1.0  0.31470  0.97504  0.21739  1.0000
  C   C253      1.0  0.02305  0.71902  0.30918  1.0000
  C   C254      1.0  0.03969  0.72485  0.24248  1.0000
  C   C255      1.0  0.06255  0.73620  0.26344  1.0000
  H   H136      1.0  0.07364  0.73963  0.21209  1.0000
  H   H137      1.0  0.03530  0.72064  0.17663  1.0000
  C   C256      1.0  0.00056  0.70760  0.28271  1.0000
  H   H138      1.0  0.99717  0.70664  0.21747  1.0000
  C   C257      1.0  0.35145  0.30596  0.31032  1.0000
  C   C258      1.0  0.34567  0.31678  0.24362  1.0000
  C   C259      1.0  0.33430  0.32829  0.26460  1.0000
  H   H139      1.0  0.33089  0.33594  0.21324  1.0000
  H   H140      1.0  0.34990  0.31658  0.17776  1.0000
  C   C260      1.0  0.36288  0.29489  0.28381  1.0000
  H   H141      1.0  0.36385  0.29242  0.21858  1.0000
  C   C261      1.0  0.76454  0.04743  0.31017  1.0000
  C   C262      1.0  0.75374  0.03081  0.24359  1.0000
  C   C263      1.0  0.74220  0.00795  0.26473  1.0000
  H   H142      1.0  0.73455  0.99686  0.21347  1.0000
  H   H143      1.0  0.75397  0.03521  0.17771  1.0000
  C   C264      1.0  0.77564  0.06993  0.28353  1.0000
  H   H144      1.0  0.77815  0.07333  0.21828  1.0000
  C   C265      1.0  0.28575  0.38374  0.40426  1.0000
  C   C266      1.0  0.29526  0.36992  0.40418  1.0000
  C   C267      1.0  0.34738  0.51647  0.40993  1.0000
  C   C268      1.0  0.36890  0.53525  0.41175  1.0000
  C   C269      1.0  0.23039  0.53304  0.39826  1.0000
  C   C270      1.0  0.23313  0.51426  0.39786  1.0000
  C   C271      1.0  0.16697  0.38230  0.40557  1.0000
  C   C272      1.0  0.14363  0.36854  0.40817  1.0000
  H   H145      1.0  0.13591  0.36366  0.46938  1.0000
  H   H146      1.0  0.17557  0.38729  0.46482  1.0000
  H   H147      1.0  0.23291  0.50685  0.45765  1.0000
  H   H148      1.0  0.22822  0.53874  0.45859  1.0000
  H   H149      1.0  0.33868  0.51080  0.46883  1.0000
  H   H150      1.0  0.37545  0.54265  0.47225  1.0000
  H   H151      1.0  0.29979  0.36633  0.46438  1.0000
  H   H152      1.0  0.28390  0.38992  0.46412  1.0000
  C   C273      1.0  0.68668  0.90399  0.40506  1.0000
  C   C274      1.0  0.70051  0.92733  0.40484  1.0000
  C   C275      1.0  0.55395  0.83289  0.41064  1.0000
  C   C276      1.0  0.53516  0.83563  0.41235  1.0000
  C   C277      1.0  0.53739  0.69931  0.39951  1.0000
  C   C278      1.0  0.55618  0.72083  0.39910  1.0000
  C   C279      1.0  0.68812  0.78663  0.40678  1.0000
  C   C280      1.0  0.70189  0.77705  0.40937  1.0000
  H   H153      1.0  0.70673  0.77421  0.47058  1.0000
  H   H154      1.0  0.68311  0.79025  0.46602  1.0000
  H   H155      1.0  0.56353  0.72803  0.45891  1.0000
  H   H156      1.0  0.53164  0.69145  0.45984  1.0000
  H   H157      1.0  0.55955  0.82985  0.46958  1.0000
  H   H158      1.0  0.52770  0.83477  0.47280  1.0000
  H   H159      1.0  0.70408  0.93547  0.46501  1.0000
  H   H160      1.0  0.68044  0.89599  0.46493  1.0000
  C   C281      1.0  0.16647  0.78468  0.40309  1.0000
  C   C282      1.0  0.14313  0.77516  0.40299  1.0000
  C   C283      1.0  0.23752  0.72302  0.40882  1.0000
  C   C284      1.0  0.23475  0.70149  0.41064  1.0000
  C   C285      1.0  0.37107  0.84000  0.39846  1.0000
  C   C286      1.0  0.34954  0.83724  0.39781  1.0000
  C   C287      1.0  0.28375  0.90342  0.40503  1.0000
  C   C288      1.0  0.29334  0.92676  0.40774  1.0000
  H   H161      1.0  0.29609  0.93442  0.46898  1.0000
  H   H162      1.0  0.28007  0.89476  0.46422  1.0000
  H   H163      1.0  0.34226  0.83739  0.45753  1.0000
  H   H164      1.0  0.37883  0.84206  0.45890  1.0000
  H   H165      1.0  0.24049  0.73167  0.46775  1.0000
  H   H166      1.0  0.23556  0.69489  0.47113  1.0000
  H   H167      1.0  0.13498  0.77061  0.46321  1.0000
  H   H168      1.0  0.17446  0.78648  0.46295  1.0000
  C   C289      1.0  0.80681  0.66450  0.40538  1.0000
  C   C290      1.0  0.79731  0.67834  0.40520  1.0000
  C   C291      1.0  0.74521  0.53179  0.41178  1.0000
  C   C292      1.0  0.72369  0.51302  0.41365  1.0000
  C   C293      1.0  0.86223  0.51524  0.40001  1.0000
  C   C294      1.0  0.85949  0.53403  0.39955  1.0000
  C   C295      1.0  0.92567  0.66597  0.40618  1.0000
  C   C296      1.0  0.94901  0.67973  0.40856  1.0000
  H   H169      1.0  0.95671  0.68462  0.46969  1.0000
  H   H170      1.0  0.91705  0.66101  0.46550  1.0000
  H   H171      1.0  0.85964  0.54140  0.45932  1.0000
  H   H172      1.0  0.86431  0.50950  0.46037  1.0000
  H   H173      1.0  0.75385  0.53746  0.47068  1.0000
  H   H174      1.0  0.71708  0.50560  0.47416  1.0000
  H   H175      1.0  0.79271  0.68189  0.46536  1.0000
  H   H176      1.0  0.80857  0.65828  0.46525  1.0000
  C   C297      1.0  0.40587  0.14423  0.40547  1.0000
  C   C298      1.0  0.39204  0.12089  0.40506  1.0000
  C   C299      1.0  0.53866  0.21538  0.41234  1.0000
  C   C300      1.0  0.55744  0.21264  0.41409  1.0000
  C   C301      1.0  0.55520  0.34894  0.40125  1.0000
  C   C302      1.0  0.53642  0.32741  0.40077  1.0000
  C   C303      1.0  0.40442  0.26160  0.40715  1.0000
  C   C304      1.0  0.39065  0.27118  0.40955  1.0000
  H   H177      1.0  0.38571  0.27398  0.47069  1.0000
  H   H178      1.0  0.40934  0.25794  0.46645  1.0000
  H   H179      1.0  0.52899  0.32018  0.46052  1.0000
  H   H180      1.0  0.56088  0.35677  0.46160  1.0000
  H   H181      1.0  0.53299  0.21839  0.47127  1.0000
  H   H182      1.0  0.56484  0.21347  0.47456  1.0000
  H   H183      1.0  0.38840  0.11270  0.46516  1.0000
  H   H184      1.0  0.41201  0.15218  0.46543  1.0000
  C   C305      1.0  0.92617  0.26361  0.40454  1.0000
  C   C306      1.0  0.94951  0.27313  0.40428  1.0000
  C   C307      1.0  0.85509  0.32523  0.41072  1.0000
  C   C308      1.0  0.85782  0.34675  0.41255  1.0000
  C   C309      1.0  0.72153  0.20822  0.40039  1.0000
  C   C310      1.0  0.74305  0.21096  0.39973  1.0000
  C   C311      1.0  0.80883  0.14480  0.40638  1.0000
  C   C312      1.0  0.79925  0.12146  0.40894  1.0000
  H   H185      1.0  0.79642  0.11375  0.47013  1.0000
  H   H186      1.0  0.81245  0.15341  0.46564  1.0000
  H   H187      1.0  0.75027  0.21079  0.45945  1.0000
  H   H188      1.0  0.71369  0.20610  0.46080  1.0000
  H   H189      1.0  0.85205  0.31655  0.46963  1.0000
  H   H190      1.0  0.85697  0.35332  0.47305  1.0000
  H   H191      1.0  0.95764  0.27766  0.46445  1.0000
  H   H192      1.0  0.91816  0.26182  0.46443  1.0000
  C   C313      1.0  0.22501  0.59305  0.34956  1.0000
  C   C314      1.0  0.22357  0.60631  0.41911  1.0000
  C   C315      1.0  0.22378  0.62654  0.39916  1.0000
  N   N49       1.0  0.22198  0.63813  0.46953  1.0000
  C   C316      1.0  0.22025  0.63174  0.55657  1.0000
  C   C317      1.0  0.22026  0.61199  0.57618  1.0000
  N   N50       1.0  0.22186  0.60014  0.50711  1.0000
  H   H193      1.0  0.21899  0.64118  0.60641  1.0000
  H   H194      1.0  0.21898  0.60652  0.64080  1.0000
  C   C318      1.0  0.22399  0.57280  0.36840  1.0000
  H   H195      1.0  0.21763  0.56543  0.42684  1.0000
  C   C319      1.0  0.47741  0.63392  0.35080  1.0000
  C   C320      1.0  0.46410  0.61921  0.42034  1.0000
  C   C321      1.0  0.44389  0.59920  0.40037  1.0000
  N   N51       1.0  0.43225  0.58580  0.47071  1.0000
  C   C322      1.0  0.43858  0.59044  0.55776  1.0000
  C   C323      1.0  0.45833  0.61021  0.57739  1.0000
  N   N52       1.0  0.47021  0.62366  0.50834  1.0000
  H   H196      1.0  0.42912  0.57975  0.60759  1.0000
  H   H197      1.0  0.46376  0.61441  0.64201  1.0000
  C   C324      1.0  0.49764  0.65315  0.36966  1.0000
  H   H198      1.0  0.50496  0.65416  0.42812  1.0000
  C   C325      1.0  0.43652  0.84541  0.35053  1.0000
  C   C326      1.0  0.45115  0.84681  0.42021  1.0000
  C   C327      1.0  0.47119  0.84663  0.40045  1.0000
  N   N53       1.0  0.48451  0.84840  0.47092  1.0000
  C   C328      1.0  0.47976  0.85006  0.55792  1.0000
  C   C329      1.0  0.45996  0.85002  0.57735  1.0000
  N   N54       1.0  0.44659  0.84846  0.50815  1.0000
  H   H199      1.0  0.49040  0.85129  0.60785  1.0000
  H   H200      1.0  0.45569  0.85124  0.64193  1.0000
  C   C330      1.0  0.41725  0.84639  0.36918  1.0000
  H   H201      1.0  0.41615  0.85266  0.42769  1.0000
  C   C331      1.0  0.86760  0.45521  0.35149  1.0000
  C   C332      1.0  0.86900  0.44193  0.42105  1.0000
  C   C333      1.0  0.86881  0.42172  0.40111  1.0000
  N   N55       1.0  0.87057  0.41011  0.47147  1.0000
  C   C334      1.0  0.87224  0.41647  0.55851  1.0000
  C   C335      1.0  0.87220  0.43621  0.57811  1.0000
  N   N56       1.0  0.87064  0.44807  0.50903  1.0000
  H   H202      1.0  0.87346  0.40702  0.60836  1.0000
  H   H203      1.0  0.87342  0.44166  0.64273  1.0000
  C   C336      1.0  0.86859  0.47545  0.37031  1.0000
  H   H204      1.0  0.87488  0.48278  0.42878  1.0000
  C   C337      1.0  0.61524  0.41436  0.35271  1.0000
  C   C338      1.0  0.62848  0.42903  0.42226  1.0000
  C   C339      1.0  0.64871  0.44906  0.40231  1.0000
  N   N57       1.0  0.66028  0.46243  0.47266  1.0000
  C   C340      1.0  0.65388  0.45774  0.55972  1.0000
  C   C341      1.0  0.63412  0.43796  0.57933  1.0000
  N   N58       1.0  0.62230  0.42454  0.51026  1.0000
  H   H205      1.0  0.66330  0.46841  0.60955  1.0000
  H   H206      1.0  0.62864  0.43373  0.64395  1.0000
  C   C342      1.0  0.59499  0.39511  0.37155  1.0000
  H   H207      1.0  0.58763  0.39406  0.43005  1.0000
  C   C343      1.0  0.65613  0.20285  0.35241  1.0000
  C   C344      1.0  0.64143  0.20143  0.42207  1.0000
  C   C345      1.0  0.62141  0.20162  0.40229  1.0000
  N   N59       1.0  0.60803  0.19983  0.47274  1.0000
  C   C346      1.0  0.61270  0.19813  0.55975  1.0000
  C   C347      1.0  0.63248  0.19817  0.57921  1.0000
  N   N60       1.0  0.64591  0.19975  0.51004  1.0000
  H   H208      1.0  0.60201  0.19689  0.60967  1.0000
  H   H209      1.0  0.63669  0.19692  0.64379  1.0000
  C   C348      1.0  0.67537  0.20186  0.37110  1.0000
  H   H210      1.0  0.67642  0.19557  0.42960  1.0000
  C   C349      1.0  0.02248  0.30581  0.35334  1.0000
  C   C350      1.0  0.03895  0.31136  0.42086  1.0000
  C   C351      1.0  0.06215  0.32287  0.39940  1.0000
  N   N61       1.0  0.07675  0.32748  0.46823  1.0000
  C   C352      1.0  0.07064  0.32190  0.55509  1.0000
  C   C353      1.0  0.04790  0.31063  0.57617  1.0000
  N   N62       1.0  0.03312  0.30585  0.50866  1.0000
  H   H211      1.0  0.08240  0.32584  0.60373  1.0000
  H   H212      1.0  0.04251  0.30607  0.64071  1.0000
  C   C354      1.0  0.99968  0.29520  0.37478  1.0000
  H   H213      1.0  0.99547  0.29404  0.43907  1.0000
  C   C355      1.0  0.76469  0.71866  0.35444  1.0000
  C   C356      1.0  0.75906  0.72954  0.42199  1.0000
  C   C357      1.0  0.74754  0.74121  0.40055  1.0000
  N   N63       1.0  0.74287  0.75119  0.46941  1.0000
  C   C358      1.0  0.74840  0.75067  0.55626  1.0000
  C   C359      1.0  0.75968  0.73922  0.57731  1.0000
  N   N64       1.0  0.76452  0.72923  0.50979  1.0000
  H   H214      1.0  0.74441  0.75847  0.60492  1.0000
  H   H215      1.0  0.76420  0.73839  0.64184  1.0000
  C   C360      1.0  0.77535  0.70652  0.37583  1.0000
  H   H216      1.0  0.77665  0.70363  0.44015  1.0000
  C   C361      1.0  0.35180  0.04797  0.35365  1.0000
  C   C362      1.0  0.34084  0.03143  0.42107  1.0000
  C   C363      1.0  0.32920  0.00825  0.39945  1.0000
  N   N65       1.0  0.31915  0.99357  0.46819  1.0000
  C   C364      1.0  0.31958  0.99958  0.55508  1.0000
  C   C365      1.0  0.33102  0.02230  0.57631  1.0000
  N   N66       1.0  0.34107  0.03716  0.50891  1.0000
  H   H217      1.0  0.31174  0.98777  0.60364  1.0000
  H   H218      1.0  0.33179  0.02763  0.64088  1.0000
  C   C366      1.0  0.36392  0.07075  0.37524  1.0000
  H   H219      1.0  0.36677  0.07491  0.43959  1.0000
  C   C367      1.0  0.07019  0.74251  0.35263  1.0000
  C   C368      1.0  0.05369  0.73693  0.42028  1.0000
  C   C369      1.0  0.03050  0.72538  0.39901  1.0000
  N   N67       1.0  0.01586  0.72076  0.46797  1.0000
  C   C370      1.0  0.02193  0.72634  0.55477  1.0000
  C   C371      1.0  0.04467  0.73764  0.57565  1.0000
  N   N68       1.0  0.05948  0.74244  0.50803  1.0000
  H   H220      1.0  0.01015  0.72238  0.60351  1.0000
  H   H221      1.0  0.05004  0.74220  0.64014  1.0000
  C   C372      1.0  0.09298  0.75317  0.37387  1.0000
  H   H222      1.0  0.09718  0.75449  0.43816  1.0000
  C   C373      1.0  0.32795  0.32963  0.35379  1.0000
  C   C374      1.0  0.33350  0.31872  0.42144  1.0000
  C   C375      1.0  0.34505  0.30707  0.40016  1.0000
  N   N69       1.0  0.34964  0.29706  0.46911  1.0000
  C   C376      1.0  0.34401  0.29756  0.55592  1.0000
  C   C377      1.0  0.33271  0.30900  0.57683  1.0000
  N   N70       1.0  0.32795  0.31901  0.50921  1.0000
  H   H223      1.0  0.34795  0.28975  0.60465  1.0000
  H   H224      1.0  0.32811  0.30982  0.64132  1.0000
  C   C378      1.0  0.31726  0.34175  0.37504  1.0000
  H   H225      1.0  0.31587  0.34460  0.43934  1.0000
  C   C379      1.0  0.74082  0.00029  0.35397  1.0000
  C   C380      1.0  0.75171  0.01677  0.42151  1.0000
  C   C381      1.0  0.76340  0.03997  0.40007  1.0000
  N   N71       1.0  0.77339  0.05459  0.46891  1.0000
  C   C382      1.0  0.77285  0.04849  0.55576  1.0000
  C   C383      1.0  0.76138  0.02576  0.57682  1.0000
  N   N72       1.0  0.75138  0.01096  0.50930  1.0000
  H   H226      1.0  0.78065  0.06026  0.60441  1.0000
  H   H227      1.0  0.76053  0.02037  0.64134  1.0000
  C   C384      1.0  0.72862  0.97749  0.37540  1.0000
  H   H228      1.0  0.72554  0.97330  0.43969  1.0000
