data_image0
_chemical_formula_structural       C3NC3NC5NC5NC20H18N4C3NC3NC5NC5NC20H18N4C3NC3NC5NC5NC20H18N4C3NC3NC5NC5NC20H18N4C3NC3NC5NC5NC20H18N4C3NC3NC5NC5NC20H18N4C3HOHCHC3HOHCHC3HOHCHC3HOHCHC3HOHCHC3HOHCHC3HOHCHC3HOHCHC3HOHCHC3HOHCHC3HOHCHC3HOHCHC8H8C8H8C8H8C8H8C8H8C8H8C3OH2CHC3OH2CHC3OH2CHC3OH2CHC3OH2CHC3OH2CHC3OH2CHC3OH2CHC3OH2CHC3OH2CHC3OH2CHC3OH2CH
_chemical_formula_sum              "C360 N48 H228 O24"
_cell_length_a       69.3535
_cell_length_b       69.3535
_cell_length_c       14.8803
_cell_angle_alpha    90.0046
_cell_angle_beta     89.9098
_cell_angle_gamma    120

_space_group_name_H-M_alt    "P 1"
_space_group_IT_number       1

loop_
  _space_group_symop_operation_xyz
  'x, y, z'

loop_
  _atom_site_type_symbol
  _atom_site_label
  _atom_site_symmetry_multiplicity
  _atom_site_fract_x
  _atom_site_fract_y
  _atom_site_fract_z
  _atom_site_occupancy
  C   C1        1.0  0.21310  0.37781  0.32257  1.0000
  C   C2        1.0  0.23303  0.37777  0.32497  1.0000
  C   C3        1.0  0.25047  0.39983  0.32545  1.0000
  N   N1        1.0  0.24038  0.41232  0.32364  1.0000
  C   C4        1.0  0.21778  0.39989  0.32194  1.0000
  C   C5        1.0  0.20149  0.40671  0.31978  1.0000
  C   C6        1.0  0.20653  0.42929  0.31956  1.0000
  N   N2        1.0  0.22680  0.44794  0.32013  1.0000
  C   C7        1.0  0.22533  0.46668  0.31945  1.0000
  C   C8        1.0  0.20264  0.45964  0.31845  1.0000
  C   C9        1.0  0.19108  0.43665  0.31884  1.0000
  C   C10       1.0  0.24296  0.48914  0.31939  1.0000
  C   C11       1.0  0.26599  0.49584  0.32139  1.0000
  N   N3        1.0  0.27596  0.48329  0.32328  1.0000
  C   C12       1.0  0.29848  0.49578  0.32530  1.0000
  C   C13       1.0  0.30324  0.51789  0.32439  1.0000
  C   C14       1.0  0.28339  0.51793  0.32232  1.0000
  C   C15       1.0  0.31476  0.48900  0.32750  1.0000
  C   C16       1.0  0.30985  0.46652  0.32754  1.0000
  N   N4        1.0  0.28962  0.44783  0.32684  1.0000
  C   C17       1.0  0.29116  0.42914  0.32768  1.0000
  C   C18       1.0  0.31396  0.43643  0.32855  1.0000
  C   C19       1.0  0.32545  0.45941  0.32882  1.0000
  C   C20       1.0  0.27357  0.40658  0.32763  1.0000
  C   C21       1.0  0.27993  0.38984  0.33017  1.0000
  C   C22       1.0  0.29922  0.36169  0.33278  1.0000
  C   C23       1.0  0.29232  0.36684  0.25108  1.0000
  C   C24       1.0  0.28292  0.38079  0.24975  1.0000
  C   C25       1.0  0.33759  0.50612  0.32991  1.0000
  C   C26       1.0  0.38124  0.54409  0.33224  1.0000
  C   C27       1.0  0.37139  0.53314  0.25053  1.0000
  C   C28       1.0  0.34981  0.51442  0.24934  1.0000
  C   C29       1.0  0.23731  0.50631  0.31756  1.0000
  C   C30       1.0  0.23809  0.51712  0.23602  1.0000
  C   C31       1.0  0.23534  0.53591  0.23566  1.0000
  C   C32       1.0  0.23166  0.54430  0.31634  1.0000
  C   C33       1.0  0.17837  0.39002  0.31767  1.0000
  C   C34       1.0  0.16634  0.38459  0.23613  1.0000
  C   C35       1.0  0.13093  0.36186  0.31605  1.0000
  C   C36       1.0  0.14300  0.37071  0.23553  1.0000
  H   H1        1.0  0.13475  0.36763  0.17557  1.0000
  H   H2        1.0  0.17441  0.39142  0.17690  1.0000
  H   H3        1.0  0.19774  0.36379  0.32164  1.0000
  H   H4        1.0  0.23433  0.36373  0.32601  1.0000
  H   H5        1.0  0.24840  0.42831  0.32360  1.0000
  H   H6        1.0  0.26794  0.46729  0.32328  1.0000
  H   H7        1.0  0.17411  0.42710  0.31867  1.0000
  H   H8        1.0  0.19544  0.46939  0.31782  1.0000
  H   H9        1.0  0.24148  0.51189  0.17680  1.0000
  H   H10       1.0  0.23656  0.54375  0.17586  1.0000
  H   H11       1.0  0.28220  0.53203  0.32170  1.0000
  H   H12       1.0  0.31856  0.53197  0.32515  1.0000
  H   H13       1.0  0.32133  0.42683  0.32898  1.0000
  H   H14       1.0  0.34241  0.46912  0.32955  1.0000
  H   H15       1.0  0.34277  0.50736  0.18893  1.0000
  H   H16       1.0  0.37948  0.53911  0.19075  1.0000
  H   H17       1.0  0.27902  0.38496  0.18920  1.0000
  H   H18       1.0  0.29479  0.36118  0.19125  1.0000
  N   N5        1.0  0.40095  0.56267  0.33852  1.0000
  N   N6        1.0  0.23048  0.56287  0.31050  1.0000
  N   N7        1.0  0.10869  0.34993  0.30987  1.0000
  N   N8        1.0  0.30957  0.34980  0.33942  1.0000
  C   C37       1.0  0.69290  0.83729  0.32371  1.0000
  C   C38       1.0  0.69294  0.85726  0.32603  1.0000
  C   C39       1.0  0.67088  0.85264  0.32646  1.0000
  N   N9        1.0  0.65839  0.83006  0.32470  1.0000
  C   C40       1.0  0.67082  0.81990  0.32308  1.0000
  C   C41       1.0  0.66400  0.79678  0.32098  1.0000
  C   C42       1.0  0.64142  0.77924  0.32077  1.0000
  N   N10       1.0  0.62277  0.78085  0.32135  1.0000
  C   C43       1.0  0.60403  0.76065  0.32069  1.0000
  C   C44       1.0  0.61108  0.74500  0.31968  1.0000
  C   C45       1.0  0.63407  0.75643  0.32007  1.0000
  C   C46       1.0  0.58158  0.75581  0.32062  1.0000
  C   C47       1.0  0.57487  0.77214  0.32258  1.0000
  N   N11       1.0  0.58742  0.79467  0.32440  1.0000
  C   C48       1.0  0.57493  0.80470  0.32638  1.0000
  C   C49       1.0  0.55282  0.78734  0.32554  1.0000
  C   C50       1.0  0.55278  0.76746  0.32354  1.0000
  C   C51       1.0  0.58170  0.82775  0.32843  1.0000
  C   C52       1.0  0.60418  0.84533  0.32841  1.0000
  N   N12       1.0  0.62288  0.84379  0.32780  1.0000
  C   C53       1.0  0.64156  0.86402  0.32853  1.0000
  C   C54       1.0  0.63428  0.87953  0.32927  1.0000
  C   C55       1.0  0.61129  0.86803  0.32954  1.0000
  C   C56       1.0  0.66412  0.86899  0.32851  1.0000
  C   C57       1.0  0.68086  0.89209  0.33094  1.0000
  C   C58       1.0  0.70902  0.93953  0.33327  1.0000
  C   C59       1.0  0.70391  0.92743  0.25165  1.0000
  C   C60       1.0  0.68998  0.90409  0.25046  1.0000
  C   C61       1.0  0.56458  0.83346  0.33067  1.0000
  C   C62       1.0  0.52663  0.83917  0.33277  1.0000
  C   C63       1.0  0.53762  0.84023  0.25110  1.0000
  C   C64       1.0  0.55634  0.83736  0.25003  1.0000
  C   C65       1.0  0.56440  0.73300  0.31879  1.0000
  C   C66       1.0  0.55364  0.72296  0.23726  1.0000
  C   C67       1.0  0.53486  0.70143  0.23690  1.0000
  C   C68       1.0  0.52641  0.68935  0.31759  1.0000
  C   C69       1.0  0.68069  0.79035  0.31890  1.0000
  C   C70       1.0  0.68620  0.78377  0.23734  1.0000
  C   C71       1.0  0.70886  0.77108  0.31726  1.0000
  C   C72       1.0  0.70005  0.77428  0.23676  1.0000
  H   H19       1.0  0.70320  0.76915  0.17677  1.0000
  H   H20       1.0  0.67940  0.78500  0.17810  1.0000
  H   H21       1.0  0.70692  0.83594  0.32282  1.0000
  H   H22       1.0  0.70698  0.87260  0.32702  1.0000
  H   H23       1.0  0.64240  0.82208  0.32463  1.0000
  H   H24       1.0  0.60341  0.80264  0.32433  1.0000
  H   H25       1.0  0.64362  0.74901  0.31989  1.0000
  H   H26       1.0  0.60133  0.72805  0.31907  1.0000
  H   H27       1.0  0.55890  0.73159  0.17805  1.0000
  H   H28       1.0  0.52704  0.69480  0.17712  1.0000
  H   H29       1.0  0.53868  0.75216  0.32298  1.0000
  H   H30       1.0  0.53874  0.78858  0.32626  1.0000
  H   H31       1.0  0.64387  0.89649  0.32958  1.0000
  H   H32       1.0  0.60158  0.87528  0.33017  1.0000
  H   H33       1.0  0.56345  0.83736  0.18967  1.0000
  H   H34       1.0  0.53169  0.84231  0.19127  1.0000
  H   H35       1.0  0.68585  0.89599  0.18995  1.0000
  H   H36       1.0  0.70966  0.93555  0.19179  1.0000
  N   N13       1.0  0.50801  0.84026  0.33891  1.0000
  N   N14       1.0  0.50785  0.66961  0.31176  1.0000
  N   N15       1.0  0.72079  0.76076  0.31108  1.0000
  N   N16       1.0  0.72091  0.96176  0.33977  1.0000
  C   C73       1.0  0.23342  0.85761  0.32169  1.0000
  C   C74       1.0  0.21345  0.83767  0.32398  1.0000
  C   C75       1.0  0.21807  0.82023  0.32446  1.0000
  N   N17       1.0  0.24066  0.83033  0.32277  1.0000
  C   C76       1.0  0.25082  0.85292  0.32116  1.0000
  C   C77       1.0  0.27394  0.86922  0.31914  1.0000
  C   C78       1.0  0.29148  0.86417  0.31902  1.0000
  N   N18       1.0  0.28986  0.84391  0.31955  1.0000
  C   C79       1.0  0.31006  0.84538  0.31903  1.0000
  C   C80       1.0  0.32571  0.86807  0.31816  1.0000
  C   C81       1.0  0.31429  0.87963  0.31848  1.0000
  C   C82       1.0  0.31490  0.82775  0.31895  1.0000
  C   C83       1.0  0.29856  0.80472  0.32077  1.0000
  N   N19       1.0  0.27604  0.79475  0.32251  1.0000
  C   C84       1.0  0.26600  0.77222  0.32442  1.0000
  C   C85       1.0  0.28336  0.76746  0.32360  1.0000
  C   C86       1.0  0.30325  0.78732  0.32170  1.0000
  C   C87       1.0  0.24295  0.75594  0.32646  1.0000
  C   C88       1.0  0.22538  0.76085  0.32644  1.0000
  N   N20       1.0  0.22692  0.78109  0.32579  1.0000
  C   C89       1.0  0.20669  0.77954  0.32655  1.0000
  C   C90       1.0  0.19117  0.75675  0.32730  1.0000
  C   C91       1.0  0.20267  0.74525  0.32757  1.0000
  C   C92       1.0  0.20172  0.79713  0.32653  1.0000
  C   C93       1.0  0.17862  0.79078  0.32898  1.0000
  C   C94       1.0  0.13118  0.77151  0.33161  1.0000
  C   C95       1.0  0.14329  0.77843  0.24989  1.0000
  C   C96       1.0  0.16663  0.78784  0.24856  1.0000
  C   C97       1.0  0.23724  0.73311  0.32877  1.0000
  C   C98       1.0  0.23152  0.68945  0.33109  1.0000
  C   C99       1.0  0.23053  0.69937  0.24936  1.0000
  C   C100      1.0  0.23339  0.72096  0.24818  1.0000
  C   C101      1.0  0.33772  0.83340  0.31733  1.0000
  C   C102      1.0  0.34786  0.83268  0.23592  1.0000
  C   C103      1.0  0.36940  0.83546  0.23579  1.0000
  C   C104      1.0  0.38136  0.83903  0.31662  1.0000
  C   C105      1.0  0.28036  0.89234  0.31712  1.0000
  C   C106      1.0  0.28707  0.90445  0.23565  1.0000
  C   C107      1.0  0.29963  0.93978  0.31573  1.0000
  C   C108      1.0  0.29654  0.92779  0.23518  1.0000
  H   H37       1.0  0.30175  0.93610  0.17525  1.0000
  H   H38       1.0  0.28589  0.89644  0.17639  1.0000
  H   H39       1.0  0.23477  0.87297  0.32077  1.0000
  H   H40       1.0  0.19811  0.83638  0.32491  1.0000
  H   H41       1.0  0.24863  0.82231  0.32278  1.0000
  H   H42       1.0  0.26807  0.80277  0.32248  1.0000
  H   H43       1.0  0.32171  0.89660  0.31838  1.0000
  H   H44       1.0  0.34267  0.87527  0.31765  1.0000
  H   H45       1.0  0.33933  0.82939  0.17658  1.0000
  H   H46       1.0  0.37611  0.83430  0.17606  1.0000
  H   H47       1.0  0.31854  0.78850  0.32119  1.0000
  H   H48       1.0  0.28212  0.75215  0.32432  1.0000
  H   H49       1.0  0.17421  0.74937  0.32765  1.0000
  H   H50       1.0  0.19542  0.72830  0.32825  1.0000
  H   H51       1.0  0.23346  0.72806  0.18777  1.0000
  H   H52       1.0  0.22850  0.69134  0.18956  1.0000
  H   H53       1.0  0.17475  0.79177  0.18801  1.0000
  H   H54       1.0  0.13519  0.77601  0.19008  1.0000
  N   N21       1.0  0.23042  0.66975  0.33735  1.0000
  N   N22       1.0  0.40111  0.84022  0.31100  1.0000
  N   N23       1.0  0.30995  0.96203  0.30967  1.0000
  N   N24       1.0  0.10894  0.76115  0.33825  1.0000
  C   C109      1.0  0.87984  0.67065  0.32347  1.0000
  C   C110      1.0  0.85991  0.67069  0.32597  1.0000
  C   C111      1.0  0.84247  0.64864  0.32662  1.0000
  N   N25       1.0  0.85256  0.63614  0.32485  1.0000
  C   C112      1.0  0.87516  0.64858  0.32299  1.0000
  C   C113      1.0  0.89145  0.64175  0.32081  1.0000
  C   C114      1.0  0.88641  0.61917  0.32075  1.0000
  N   N26       1.0  0.86615  0.60052  0.32151  1.0000
  C   C115      1.0  0.86762  0.58179  0.32093  1.0000
  C   C116      1.0  0.89031  0.58883  0.31980  1.0000
  C   C117      1.0  0.90187  0.61182  0.32001  1.0000
  C   C118      1.0  0.84999  0.55933  0.32105  1.0000
  C   C119      1.0  0.82696  0.55263  0.32316  1.0000
  N   N27       1.0  0.81699  0.56518  0.32502  1.0000
  C   C120      1.0  0.79446  0.55268  0.32712  1.0000
  C   C121      1.0  0.78970  0.53057  0.32632  1.0000
  C   C122      1.0  0.80955  0.53054  0.32421  1.0000
  C   C123      1.0  0.77818  0.55946  0.32929  1.0000
  C   C124      1.0  0.78308  0.58194  0.32921  1.0000
  N   N28       1.0  0.80332  0.60064  0.32840  1.0000
  C   C125      1.0  0.80177  0.61932  0.32911  1.0000
  C   C126      1.0  0.77898  0.61204  0.33004  1.0000
  C   C127      1.0  0.76749  0.58905  0.33044  1.0000
  C   C128      1.0  0.81936  0.64188  0.32890  1.0000
  C   C129      1.0  0.81301  0.65862  0.33128  1.0000
  C   C130      1.0  0.79374  0.68679  0.33371  1.0000
  C   C131      1.0  0.80069  0.68163  0.25204  1.0000
  C   C132      1.0  0.81011  0.66771  0.25082  1.0000
  C   C133      1.0  0.75535  0.54234  0.33174  1.0000
  C   C134      1.0  0.71169  0.50438  0.33415  1.0000
  C   C135      1.0  0.72160  0.51535  0.25242  1.0000
  C   C136      1.0  0.74320  0.53406  0.25119  1.0000
  C   C137      1.0  0.85563  0.54215  0.31923  1.0000
  C   C138      1.0  0.85491  0.53135  0.23774  1.0000
  C   C139      1.0  0.85766  0.51257  0.23743  1.0000
  C   C140      1.0  0.86126  0.50415  0.31815  1.0000
  C   C141      1.0  0.91457  0.65845  0.31847  1.0000
  C   C142      1.0  0.92664  0.66386  0.23684  1.0000
  C   C143      1.0  0.96202  0.68659  0.31641  1.0000
  C   C144      1.0  0.94998  0.67773  0.23602  1.0000
  H   H55       1.0  0.95824  0.68082  0.17597  1.0000
  H   H56       1.0  0.91858  0.65704  0.17768  1.0000
  H   H57       1.0  0.89520  0.68467  0.32243  1.0000
  H   H58       1.0  0.85861  0.68473  0.32692  1.0000
  H   H59       1.0  0.84455  0.62015  0.32493  1.0000
  H   H60       1.0  0.82500  0.58117  0.32494  1.0000
  H   H61       1.0  0.91884  0.62137  0.31970  1.0000
  H   H62       1.0  0.89751  0.57908  0.31919  1.0000
  H   H63       1.0  0.85158  0.53662  0.17850  1.0000
  H   H64       1.0  0.85650  0.50474  0.17766  1.0000
  H   H65       1.0  0.81074  0.51643  0.32364  1.0000
  H   H66       1.0  0.77439  0.51650  0.32714  1.0000
  H   H67       1.0  0.77161  0.62163  0.33040  1.0000
  H   H68       1.0  0.75053  0.57934  0.33124  1.0000
  H   H69       1.0  0.75028  0.54114  0.19077  1.0000
  H   H70       1.0  0.71357  0.50938  0.19264  1.0000
  H   H71       1.0  0.81404  0.66352  0.19028  1.0000
  H   H72       1.0  0.79828  0.68732  0.19219  1.0000
  N   N29       1.0  0.69199  0.48578  0.34046  1.0000
  N   N30       1.0  0.86246  0.48559  0.31237  1.0000
  N   N31       1.0  0.98426  0.69852  0.31001  1.0000
  N   N32       1.0  0.78337  0.69866  0.34024  1.0000
  C   C145      1.0  0.40005  0.21118  0.32414  1.0000
  C   C146      1.0  0.40001  0.19121  0.32646  1.0000
  C   C147      1.0  0.42206  0.19582  0.32715  1.0000
  N   N33       1.0  0.43456  0.21841  0.32554  1.0000
  C   C148      1.0  0.42213  0.22857  0.32376  1.0000
  C   C149      1.0  0.42895  0.25169  0.32174  1.0000
  C   C150      1.0  0.45154  0.26923  0.32179  1.0000
  N   N34       1.0  0.47018  0.26762  0.32253  1.0000
  C   C151      1.0  0.48892  0.28782  0.32207  1.0000
  C   C152      1.0  0.48188  0.30347  0.32103  1.0000
  C   C153      1.0  0.45889  0.29204  0.32118  1.0000
  C   C154      1.0  0.51138  0.29266  0.32220  1.0000
  C   C155      1.0  0.51808  0.27632  0.32421  1.0000
  N   N35       1.0  0.50553  0.25380  0.32599  1.0000
  C   C156      1.0  0.51802  0.24376  0.32798  1.0000
  C   C157      1.0  0.54013  0.26112  0.32722  1.0000
  C   C158      1.0  0.54017  0.28101  0.32523  1.0000
  C   C159      1.0  0.51124  0.22071  0.33001  1.0000
  C   C160      1.0  0.48876  0.20314  0.32982  1.0000
  N   N36       1.0  0.47006  0.20468  0.32901  1.0000
  C   C161      1.0  0.45138  0.18445  0.32959  1.0000
  C   C162      1.0  0.45866  0.16893  0.33042  1.0000
  C   C163      1.0  0.48165  0.18043  0.33093  1.0000
  C   C164      1.0  0.42882  0.17948  0.32932  1.0000
  C   C165      1.0  0.41207  0.15638  0.33155  1.0000
  C   C166      1.0  0.38392  0.10893  0.33349  1.0000
  C   C167      1.0  0.38913  0.12110  0.25196  1.0000
  C   C168      1.0  0.40308  0.14444  0.25096  1.0000
  C   C169      1.0  0.52836  0.21500  0.33235  1.0000
  C   C170      1.0  0.56633  0.20931  0.33450  1.0000
  C   C171      1.0  0.55539  0.20826  0.25283  1.0000
  C   C172      1.0  0.53667  0.21112  0.25173  1.0000
  C   C173      1.0  0.52855  0.31547  0.32045  1.0000
  C   C174      1.0  0.53939  0.32555  0.23895  1.0000
  C   C175      1.0  0.55818  0.34709  0.23866  1.0000
  C   C176      1.0  0.56654  0.35912  0.31937  1.0000
  C   C177      1.0  0.41226  0.25812  0.31944  1.0000
  C   C178      1.0  0.40690  0.26478  0.23781  1.0000
  C   C179      1.0  0.38411  0.27741  0.31744  1.0000
  C   C180      1.0  0.39303  0.27424  0.23703  1.0000
  H   H73       1.0  0.38999  0.27944  0.17701  1.0000
  H   H74       1.0  0.41378  0.26356  0.17866  1.0000
  H   H75       1.0  0.38604  0.21253  0.32308  1.0000
  H   H76       1.0  0.38597  0.17587  0.32733  1.0000
  H   H77       1.0  0.45055  0.22639  0.32566  1.0000
  H   H78       1.0  0.48953  0.24583  0.32593  1.0000
  H   H79       1.0  0.44934  0.29947  0.32092  1.0000
  H   H80       1.0  0.49163  0.32043  0.32052  1.0000
  H   H81       1.0  0.53418  0.31697  0.17971  1.0000
  H   H82       1.0  0.56604  0.35376  0.17888  1.0000
  H   H83       1.0  0.55427  0.29630  0.32468  1.0000
  H   H84       1.0  0.55420  0.25988  0.32796  1.0000
  H   H85       1.0  0.44907  0.15197  0.33066  1.0000
  H   H86       1.0  0.49136  0.17318  0.33166  1.0000
  H   H87       1.0  0.52961  0.21113  0.19136  1.0000
  H   H88       1.0  0.56137  0.20617  0.19302  1.0000
  H   H89       1.0  0.40729  0.15259  0.19051  1.0000
  H   H90       1.0  0.38351  0.11303  0.19202  1.0000
  N   N37       1.0  0.58492  0.20820  0.34068  1.0000
  N   N38       1.0  0.58511  0.37887  0.31360  1.0000
  N   N39       1.0  0.37219  0.28772  0.31109  1.0000
  N   N40       1.0  0.37202  0.08669  0.33981  1.0000
  C   C181      1.0  0.85953  0.19086  0.32320  1.0000
  C   C182      1.0  0.87950  0.21080  0.32549  1.0000
  C   C183      1.0  0.87488  0.22823  0.32601  1.0000
  N   N41       1.0  0.85230  0.21814  0.32433  1.0000
  C   C184      1.0  0.84214  0.19555  0.32269  1.0000
  C   C185      1.0  0.81902  0.17925  0.32067  1.0000
  C   C186      1.0  0.80148  0.18429  0.32062  1.0000
  N   N42       1.0  0.80309  0.20455  0.32128  1.0000
  C   C187      1.0  0.78289  0.20309  0.32080  1.0000
  C   C188      1.0  0.76724  0.18039  0.31982  1.0000
  C   C189      1.0  0.77867  0.16884  0.32005  1.0000
  C   C190      1.0  0.77805  0.22071  0.32087  1.0000
  C   C191      1.0  0.79438  0.24374  0.32276  1.0000
  N   N43       1.0  0.81691  0.25372  0.32443  1.0000
  C   C192      1.0  0.82694  0.27624  0.32641  1.0000
  C   C193      1.0  0.80958  0.28100  0.32573  1.0000
  C   C194      1.0  0.78970  0.26114  0.32383  1.0000
  C   C195      1.0  0.84999  0.29252  0.32836  1.0000
  C   C196      1.0  0.86756  0.28761  0.32821  1.0000
  N   N44       1.0  0.86603  0.26738  0.32753  1.0000
  C   C197      1.0  0.88626  0.26893  0.32816  1.0000
  C   C198      1.0  0.90177  0.29172  0.32888  1.0000
  C   C199      1.0  0.89027  0.30321  0.32926  1.0000
  C   C200      1.0  0.89123  0.25134  0.32806  1.0000
  C   C201      1.0  0.91433  0.25770  0.33044  1.0000
  C   C202      1.0  0.96176  0.27697  0.33270  1.0000
  C   C203      1.0  0.94968  0.27002  0.25109  1.0000
  C   C204      1.0  0.92634  0.26061  0.24994  1.0000
  C   C205      1.0  0.85570  0.31535  0.33070  1.0000
  C   C206      1.0  0.86141  0.35902  0.33304  1.0000
  C   C207      1.0  0.86246  0.34912  0.25130  1.0000
  C   C208      1.0  0.85959  0.32753  0.25011  1.0000
  C   C209      1.0  0.75523  0.21506  0.31927  1.0000
  C   C210      1.0  0.74517  0.21582  0.23786  1.0000
  C   C211      1.0  0.72363  0.21306  0.23774  1.0000
  C   C212      1.0  0.71159  0.20942  0.31855  1.0000
  C   C213      1.0  0.81260  0.15613  0.31852  1.0000
  C   C214      1.0  0.80600  0.14409  0.23696  1.0000
  C   C215      1.0  0.79332  0.10869  0.31681  1.0000
  C   C216      1.0  0.79652  0.12075  0.23634  1.0000
  H   H91       1.0  0.79137  0.11249  0.17635  1.0000
  H   H92       1.0  0.80723  0.15214  0.17775  1.0000
  H   H93       1.0  0.85818  0.17550  0.32226  1.0000
  H   H94       1.0  0.89484  0.21209  0.32641  1.0000
  H   H95       1.0  0.84432  0.22616  0.32433  1.0000
  H   H96       1.0  0.82488  0.24570  0.32427  1.0000
  H   H97       1.0  0.77125  0.15187  0.31985  1.0000
  H   H98       1.0  0.75029  0.17319  0.31933  1.0000
  H   H99       1.0  0.75378  0.21919  0.17856  1.0000
  H   H100      1.0  0.71698  0.21427  0.17803  1.0000
  H   H101      1.0  0.77440  0.25996  0.32339  1.0000
  H   H102      1.0  0.81082  0.29631  0.32652  1.0000
  H   H103      1.0  0.91873  0.29910  0.32913  1.0000
  H   H104      1.0  0.89752  0.32017  0.32991  1.0000
  H   H105      1.0  0.85958  0.32046  0.18970  1.0000
  H   H106      1.0  0.86454  0.35718  0.19151  1.0000
  H   H107      1.0  0.91825  0.25667  0.18944  1.0000
  H   H108      1.0  0.95780  0.27242  0.19122  1.0000
  N   N45       1.0  0.86250  0.37871  0.33932  1.0000
  N   N46       1.0  0.69184  0.20823  0.31294  1.0000
  N   N47       1.0  0.78301  0.08645  0.31060  1.0000
  N   N48       1.0  0.98400  0.28731  0.33917  1.0000
  C   C217      1.0  0.22549  0.63414  0.30546  1.0000
  C   C218      1.0  0.22329  0.61917  0.23612  1.0000
  C   C219      1.0  0.22354  0.59931  0.25381  1.0000
  H   H109      1.0  0.22137  0.62257  0.17080  1.0000
  O   O1        1.0  0.22037  0.58553  0.18319  1.0000
  H   H110      1.0  0.23501  0.59122  0.15444  1.0000
  C   C220      1.0  0.22491  0.65343  0.28276  1.0000
  H   H111      1.0  0.22014  0.65469  0.22111  1.0000
  C   C221      1.0  0.43658  0.59335  0.30666  1.0000
  C   C222      1.0  0.45160  0.60611  0.23734  1.0000
  C   C223      1.0  0.47145  0.62623  0.25505  1.0000
  H   H112      1.0  0.44824  0.60079  0.17200  1.0000
  O   O2        1.0  0.48528  0.63683  0.18444  1.0000
  H   H113      1.0  0.47961  0.64578  0.15568  1.0000
  C   C224      1.0  0.41731  0.57348  0.28394  1.0000
  H   H114      1.0  0.41608  0.56746  0.22228  1.0000
  C   C225      1.0  0.47739  0.84524  0.30679  1.0000
  C   C226      1.0  0.46471  0.84751  0.23732  1.0000
  C   C227      1.0  0.44456  0.84722  0.25480  1.0000
  H   H115      1.0  0.47013  0.84950  0.17205  1.0000
  O   O3        1.0  0.43406  0.85047  0.18408  1.0000
  H   H116      1.0  0.42515  0.83586  0.15521  1.0000
  C   C228      1.0  0.49730  0.84588  0.28430  1.0000
  H   H117      1.0  0.50345  0.85078  0.22282  1.0000
  C   C229      1.0  0.86748  0.41433  0.30743  1.0000
  C   C230      1.0  0.86974  0.42933  0.23809  1.0000
  C   C231      1.0  0.86946  0.44918  0.25575  1.0000
  H   H118      1.0  0.87172  0.42595  0.17276  1.0000
  O   O4        1.0  0.87269  0.46298  0.18512  1.0000
  H   H119      1.0  0.85808  0.45730  0.15636  1.0000
  C   C232      1.0  0.86810  0.39507  0.28477  1.0000
  H   H120      1.0  0.87297  0.39385  0.22319  1.0000
  C   C233      1.0  0.65637  0.45514  0.30862  1.0000
  C   C234      1.0  0.64142  0.44240  0.23928  1.0000
  C   C235      1.0  0.62156  0.42227  0.25696  1.0000
  H   H121      1.0  0.64484  0.44775  0.17395  1.0000
  O   O5        1.0  0.60780  0.41170  0.18633  1.0000
  H   H122      1.0  0.61350  0.40276  0.15759  1.0000
  C   C236      1.0  0.67565  0.47502  0.28593  1.0000
  H   H123      1.0  0.67691  0.48111  0.22434  1.0000
  C   C237      1.0  0.61558  0.20323  0.30859  1.0000
  C   C238      1.0  0.62832  0.20098  0.23915  1.0000
  C   C239      1.0  0.64844  0.20125  0.25667  1.0000
  H   H124      1.0  0.62297  0.19902  0.17388  1.0000
  O   O6        1.0  0.65901  0.19803  0.18598  1.0000
  H   H125      1.0  0.66796  0.21265  0.15710  1.0000
  C   C240      1.0  0.59570  0.20263  0.28606  1.0000
  H   H126      1.0  0.58964  0.19781  0.22448  1.0000
  C   C241      1.0  0.02274  0.30400  0.30601  1.0000
  C   C242      1.0  0.03886  0.31009  0.23681  1.0000
  C   C243      1.0  0.06198  0.32190  0.25427  1.0000
  H   H127      1.0  0.03385  0.30593  0.17147  1.0000
  O   O7        1.0  0.07602  0.32627  0.18336  1.0000
  H   H128      1.0  0.07806  0.34004  0.15561  1.0000
  C   C244      1.0  0.00004  0.29241  0.28313  1.0000
  H   H129      1.0  0.99603  0.28803  0.21932  1.0000
  C   C245      1.0  0.76671  0.72073  0.30714  1.0000
  C   C246      1.0  0.76065  0.73075  0.23796  1.0000
  C   C247      1.0  0.74883  0.74206  0.25544  1.0000
  H   H130      1.0  0.76486  0.72990  0.17262  1.0000
  O   O8        1.0  0.74451  0.75173  0.18454  1.0000
  H   H131      1.0  0.73075  0.73999  0.15680  1.0000
  C   C248      1.0  0.77832  0.70963  0.28425  1.0000
  H   H132      1.0  0.78279  0.71004  0.22047  1.0000
  C   C249      1.0  0.34998  0.04798  0.30638  1.0000
  C   C250      1.0  0.34004  0.03194  0.23704  1.0000
  C   C251      1.0  0.32871  0.00880  0.25434  1.0000
  H   H133      1.0  0.34097  0.03702  0.17174  1.0000
  O   O9        1.0  0.31913  0.99484  0.18332  1.0000
  H   H134      1.0  0.33089  0.99283  0.15564  1.0000
  C   C252      1.0  0.36112  0.07071  0.28366  1.0000
  H   H135      1.0  0.36079  0.07479  0.21989  1.0000
  C   C253      1.0  0.07021  0.74446  0.30541  1.0000
  C   C254      1.0  0.05412  0.73835  0.23632  1.0000
  C   C255      1.0  0.03099  0.72654  0.25398  1.0000
  H   H136      1.0  0.05915  0.74250  0.17094  1.0000
  O   O10       1.0  0.01698  0.72215  0.18317  1.0000
  H   H137      1.0  0.01495  0.70837  0.15553  1.0000
  C   C256      1.0  0.09292  0.75607  0.28235  1.0000
  H   H138      1.0  0.09696  0.76048  0.21852  1.0000
  C   C257      1.0  0.32626  0.32775  0.30656  1.0000
  C   C258      1.0  0.33242  0.31776  0.23746  1.0000
  C   C259      1.0  0.34421  0.30644  0.25510  1.0000
  H   H139      1.0  0.32831  0.31865  0.17208  1.0000
  O   O11       1.0  0.34864  0.29682  0.18428  1.0000
  H   H140      1.0  0.36244  0.30857  0.15665  1.0000
  C   C260      1.0  0.31468  0.33886  0.28350  1.0000
  H   H141      1.0  0.31032  0.33849  0.21967  1.0000
  C   C261      1.0  0.74298  0.00050  0.30664  1.0000
  C   C262      1.0  0.75301  0.01661  0.23745  1.0000
  C   C263      1.0  0.76433  0.03973  0.25493  1.0000
  H   H142      1.0  0.75216  0.01158  0.17211  1.0000
  O   O12       1.0  0.77401  0.05376  0.18403  1.0000
  H   H143      1.0  0.76228  0.05579  0.15631  1.0000
  C   C264      1.0  0.73186  0.97780  0.28374  1.0000
  H   H144      1.0  0.73223  0.97377  0.21991  1.0000
  C   C265      1.0  0.28643  0.38440  0.41197  1.0000
  C   C266      1.0  0.29590  0.37053  0.41306  1.0000
  C   C267      1.0  0.34750  0.51681  0.41171  1.0000
  C   C268      1.0  0.36904  0.53558  0.41264  1.0000
  C   C269      1.0  0.23058  0.53324  0.39778  1.0000
  C   C270      1.0  0.23343  0.51451  0.39842  1.0000
  C   C271      1.0  0.16643  0.38094  0.39833  1.0000
  C   C272      1.0  0.14309  0.36700  0.39748  1.0000
  H   H145      1.0  0.13501  0.36129  0.45745  1.0000
  H   H146      1.0  0.17457  0.38509  0.45871  1.0000
  H   H147      1.0  0.23337  0.50733  0.45861  1.0000
  H   H148      1.0  0.22843  0.53910  0.45775  1.0000
  H   H149      1.0  0.33878  0.51149  0.47073  1.0000
  H   H150      1.0  0.37558  0.54334  0.47262  1.0000
  H   H151      1.0  0.30100  0.36745  0.47321  1.0000
  H   H152      1.0  0.28513  0.39123  0.47106  1.0000
  C   C273      1.0  0.68626  0.90406  0.41268  1.0000
  C   C274      1.0  0.70012  0.92740  0.41361  1.0000
  C   C275      1.0  0.55383  0.83271  0.41243  1.0000
  C   C276      1.0  0.53506  0.83548  0.41322  1.0000
  C   C277      1.0  0.53744  0.69933  0.39901  1.0000
  C   C278      1.0  0.55617  0.72091  0.39964  1.0000
  C   C279      1.0  0.68971  0.78747  0.39955  1.0000
  C   C280      1.0  0.70365  0.77807  0.39871  1.0000
  H   H153      1.0  0.70930  0.77569  0.45868  1.0000
  H   H154      1.0  0.68550  0.79145  0.45994  1.0000
  H   H155      1.0  0.56330  0.72803  0.45985  1.0000
  H   H156      1.0  0.53154  0.69133  0.45899  1.0000
  H   H157      1.0  0.55909  0.82930  0.47148  1.0000
  H   H158      1.0  0.52724  0.83425  0.47316  1.0000
  H   H159      1.0  0.70318  0.93561  0.47371  1.0000
  H   H160      1.0  0.67938  0.89596  0.47179  1.0000
  C   C281      1.0  0.16662  0.78423  0.41080  1.0000
  C   C282      1.0  0.14328  0.77476  0.41188  1.0000
  C   C283      1.0  0.23793  0.72314  0.41059  1.0000
  C   C284      1.0  0.23513  0.70158  0.41151  1.0000
  C   C285      1.0  0.37127  0.84006  0.39793  1.0000
  C   C286      1.0  0.34969  0.83719  0.39833  1.0000
  C   C287      1.0  0.28313  0.90420  0.39781  1.0000
  C   C288      1.0  0.29255  0.92755  0.39709  1.0000
  H   H161      1.0  0.29482  0.93556  0.45708  1.0000
  H   H162      1.0  0.27908  0.89600  0.45816  1.0000
  H   H163      1.0  0.34248  0.83719  0.45845  1.0000
  H   H164      1.0  0.37918  0.84211  0.45801  1.0000
  H   H165      1.0  0.24125  0.73180  0.46963  1.0000
  H   H166      1.0  0.23630  0.69500  0.47149  1.0000
  H   H167      1.0  0.13506  0.76964  0.47204  1.0000
  H   H168      1.0  0.17471  0.78549  0.46989  1.0000
  C   C289      1.0  0.80643  0.66405  0.41305  1.0000
  C   C290      1.0  0.79698  0.67793  0.41404  1.0000
  C   C291      1.0  0.74538  0.53162  0.41357  1.0000
  C   C292      1.0  0.72383  0.51286  0.41453  1.0000
  C   C293      1.0  0.86233  0.51523  0.39953  1.0000
  C   C294      1.0  0.85948  0.53396  0.40011  1.0000
  C   C295      1.0  0.92650  0.66751  0.39900  1.0000
  C   C296      1.0  0.94984  0.68145  0.39794  1.0000
  H   H169      1.0  0.95789  0.68716  0.45783  1.0000
  H   H170      1.0  0.91833  0.66338  0.45945  1.0000
  H   H171      1.0  0.85946  0.54110  0.46030  1.0000
  H   H172      1.0  0.86439  0.50933  0.45954  1.0000
  H   H173      1.0  0.75404  0.53694  0.47258  1.0000
  H   H174      1.0  0.71725  0.50508  0.47452  1.0000
  H   H175      1.0  0.79182  0.68100  0.47416  1.0000
  H   H176      1.0  0.80768  0.65721  0.47217  1.0000
  C   C297      1.0  0.40657  0.14432  0.41318  1.0000
  C   C298      1.0  0.39270  0.12099  0.41394  1.0000
  C   C299      1.0  0.53904  0.21574  0.41412  1.0000
  C   C300      1.0  0.55781  0.21297  0.41494  1.0000
  C   C301      1.0  0.55545  0.34909  0.40078  1.0000
  C   C302      1.0  0.53672  0.32751  0.40135  1.0000
  C   C303      1.0  0.40312  0.26094  0.39998  1.0000
  C   C304      1.0  0.38918  0.27035  0.39894  1.0000
  H   H177      1.0  0.38343  0.27268  0.45885  1.0000
  H   H178      1.0  0.40722  0.25691  0.46042  1.0000
  H   H179      1.0  0.52952  0.32035  0.46152  1.0000
  H   H180      1.0  0.56128  0.35705  0.46078  1.0000
  H   H181      1.0  0.53371  0.21911  0.47316  1.0000
  H   H182      1.0  0.56557  0.21416  0.47489  1.0000
  H   H183      1.0  0.38957  0.11272  0.47398  1.0000
  H   H184      1.0  0.41336  0.15238  0.47238  1.0000
  C   C305      1.0  0.92629  0.26424  0.41216  1.0000
  C   C306      1.0  0.94963  0.27372  0.41306  1.0000
  C   C307      1.0  0.85496  0.32530  0.41253  1.0000
  C   C308      1.0  0.85773  0.34684  0.41345  1.0000
  C   C309      1.0  0.72160  0.20835  0.39986  1.0000
  C   C310      1.0  0.74318  0.21119  0.40025  1.0000
  C   C311      1.0  0.80972  0.14420  0.39915  1.0000
  C   C312      1.0  0.80032  0.12086  0.39826  1.0000
  H   H185      1.0  0.79795  0.11279  0.45821  1.0000
  H   H186      1.0  0.81370  0.15235  0.45954  1.0000
  H   H187      1.0  0.75032  0.21117  0.46038  1.0000
  H   H188      1.0  0.71362  0.20623  0.45992  1.0000
  H   H189      1.0  0.85155  0.31660  0.47156  1.0000
  H   H190      1.0  0.85651  0.35340  0.47344  1.0000
  H   H191      1.0  0.95783  0.27884  0.47315  1.0000
  H   H192      1.0  0.91817  0.26299  0.47129  1.0000
  C   C313      1.0  0.22807  0.60851  0.41255  1.0000
  C   C314      1.0  0.22781  0.62836  0.39483  1.0000
  C   C315      1.0  0.22574  0.59352  0.34318  1.0000
  O   O13       1.0  0.23011  0.64156  0.46650  1.0000
  H   H193      1.0  0.22976  0.60495  0.47792  1.0000
  H   H194      1.0  0.21493  0.63690  0.48742  1.0000
  C   C316      1.0  0.22522  0.57373  0.36599  1.0000
  H   H195      1.0  0.22088  0.56797  0.42828  1.0000
  C   C317      1.0  0.46214  0.62156  0.41377  1.0000
  C   C318      1.0  0.44230  0.60145  0.39604  1.0000
  C   C319      1.0  0.47718  0.63422  0.34443  1.0000
  O   O14       1.0  0.42905  0.59055  0.46769  1.0000
  H   H196      1.0  0.46566  0.62681  0.47915  1.0000
  H   H197      1.0  0.43369  0.58004  0.48862  1.0000
  C   C320      1.0  0.49696  0.65349  0.36724  1.0000
  H   H198      1.0  0.50267  0.65492  0.42955  1.0000
  C   C321      1.0  0.44902  0.84253  0.41357  1.0000
  C   C322      1.0  0.46917  0.84282  0.39607  1.0000
  C   C323      1.0  0.43645  0.84492  0.34409  1.0000
  O   O15       1.0  0.47998  0.84046  0.46783  1.0000
  H   H199      1.0  0.44368  0.84076  0.47889  1.0000
  H   H200      1.0  0.49046  0.85561  0.48887  1.0000
  C   C324      1.0  0.41715  0.84541  0.36669  1.0000
  H   H201      1.0  0.41562  0.84965  0.42900  1.0000
  C   C325      1.0  0.86479  0.43992  0.41449  1.0000
  C   C326      1.0  0.86507  0.42008  0.39680  1.0000
  C   C327      1.0  0.86717  0.45494  0.34511  1.0000
  O   O16       1.0  0.86272  0.40686  0.46847  1.0000
  H   H202      1.0  0.86303  0.44346  0.47986  1.0000
  H   H203      1.0  0.87787  0.41151  0.48939  1.0000
  C   C328      1.0  0.86766  0.47471  0.36790  1.0000
  H   H204      1.0  0.87192  0.48044  0.43020  1.0000
  C   C329      1.0  0.63072  0.42687  0.41569  1.0000
  C   C330      1.0  0.65057  0.44700  0.39799  1.0000
  C   C331      1.0  0.61575  0.41424  0.34633  1.0000
  O   O17       1.0  0.66375  0.45787  0.46965  1.0000
  H   H205      1.0  0.62714  0.42159  0.48107  1.0000
  H   H206      1.0  0.65908  0.46838  0.49055  1.0000
  C   C332      1.0  0.59596  0.39495  0.36913  1.0000
  H   H207      1.0  0.59019  0.39348  0.43143  1.0000
  C   C333      1.0  0.64383  0.20589  0.41542  1.0000
  C   C334      1.0  0.62372  0.20562  0.39788  1.0000
  C   C335      1.0  0.65647  0.20352  0.34597  1.0000
  O   O18       1.0  0.61284  0.20796  0.46963  1.0000
  H   H208      1.0  0.64912  0.20764  0.48075  1.0000
  H   H209      1.0  0.60234  0.19281  0.49068  1.0000
  C   C336      1.0  0.67575  0.20302  0.36860  1.0000
  H   H210      1.0  0.67722  0.19876  0.43093  1.0000
  C   C337      1.0  0.05397  0.32187  0.41268  1.0000
  C   C338      1.0  0.03085  0.31007  0.39519  1.0000
  C   C339      1.0  0.07006  0.32792  0.34344  1.0000
  O   O19       1.0  0.01693  0.30528  0.46678  1.0000
  H   H211      1.0  0.05902  0.32595  0.47802  1.0000
  H   H212      1.0  0.01389  0.29070  0.48943  1.0000
  C   C340      1.0  0.09273  0.33904  0.36630  1.0000
  H   H213      1.0  0.09672  0.33881  0.43024  1.0000
  C   C341      1.0  0.74877  0.73409  0.41384  1.0000
  C   C342      1.0  0.76058  0.72277  0.39634  1.0000
  C   C343      1.0  0.74276  0.74412  0.34461  1.0000
  O   O20       1.0  0.76534  0.71364  0.46791  1.0000
  H   H214      1.0  0.74466  0.73506  0.47919  1.0000
  H   H215      1.0  0.77990  0.72519  0.49053  1.0000
  C   C344      1.0  0.73164  0.75568  0.36749  1.0000
  H   H216      1.0  0.73185  0.75993  0.43142  1.0000
  C   C345      1.0  0.33649  0.01664  0.41283  1.0000
  C   C346      1.0  0.34784  0.03977  0.39552  1.0000
  C   C347      1.0  0.32654  0.00063  0.34347  1.0000
  O   O21       1.0  0.35688  0.05362  0.46722  1.0000
  H   H217      1.0  0.33544  0.01151  0.47816  1.0000
  H   H218      1.0  0.34531  0.05664  0.48977  1.0000
  C   C348      1.0  0.31495  0.97793  0.36617  1.0000
  H   H219      1.0  0.31063  0.97387  0.43005  1.0000
  C   C349      1.0  0.03894  0.72660  0.41235  1.0000
  C   C350      1.0  0.06207  0.73840  0.39467  1.0000
  C   C351      1.0  0.02288  0.72053  0.34323  1.0000
  O   O22       1.0  0.07597  0.74321  0.46616  1.0000
  H   H220      1.0  0.03387  0.72253  0.47775  1.0000
  H   H221      1.0  0.07899  0.75780  0.48866  1.0000
  C   C352      1.0  0.00021  0.70942  0.36628  1.0000
  H   H222      1.0  0.99619  0.70966  0.43025  1.0000
  C   C353      1.0  0.34405  0.31434  0.41348  1.0000
  C   C354      1.0  0.33227  0.32566  0.39581  1.0000
  C   C355      1.0  0.35016  0.30434  0.34435  1.0000
  O   O23       1.0  0.32741  0.33476  0.46731  1.0000
  H   H223      1.0  0.34808  0.31333  0.47887  1.0000
  H   H224      1.0  0.31281  0.32320  0.48982  1.0000
  C   C356      1.0  0.36126  0.29278  0.36738  1.0000
  H   H225      1.0  0.36098  0.28852  0.43134  1.0000
  C   C357      1.0  0.75634  0.03175  0.41334  1.0000
  C   C358      1.0  0.74501  0.00863  0.39583  1.0000
  C   C359      1.0  0.76638  0.04782  0.34411  1.0000
  O   O24       1.0  0.73586  0.99472  0.46742  1.0000
  H   H226      1.0  0.75730  0.03682  0.47870  1.0000
  H   H227      1.0  0.74741  0.99169  0.49002  1.0000
  C   C360      1.0  0.77795  0.07050  0.36698  1.0000
  H   H228      1.0  0.78220  0.07450  0.43090  1.0000
