data_image0
_chemical_formula_structural       C4NC2NH2C4NC2NH2C4NC2NH2C2H2CH3C2H2CH3C2H2CH3C2H2CH3C2H2CH3C2H2CH3NC18H12NC18H12NC18H12NC18H12NC18H12NC18H12C2H2CH2C2H2CH2C2H2CH2C4NC2NHC4NC2NHC4NC2NHC4NC2NHC4NC2NHC4NC2NH
_chemical_formula_sum              "C189 N24 H126"
_cell_length_a       52.8289
_cell_length_b       52.8289
_cell_length_c       14.9508
_cell_angle_alpha    90
_cell_angle_beta     90
_cell_angle_gamma    120

_space_group_name_H-M_alt    "P 1"
_space_group_IT_number       1

loop_
  _space_group_symop_operation_xyz
  'x, y, z'

loop_
  _atom_site_type_symbol
  _atom_site_label
  _atom_site_symmetry_multiplicity
  _atom_site_fract_x
  _atom_site_fract_y
  _atom_site_fract_z
  _atom_site_occupancy
  C   C1        1.0  0.97080  0.48609  0.31570  1.0000
  C   C2        1.0  0.98735  0.49555  0.23494  1.0000
  C   C3        1.0  0.01851  0.51314  0.23599  1.0000
  C   C4        1.0  0.03477  0.52010  0.31709  1.0000
  N   N1        1.0  0.03216  0.52307  0.15585  1.0000
  C   C5        1.0  0.01874  0.51641  0.07505  1.0000
  C   C6        1.0  0.98837  0.49734  0.07400  1.0000
  N   N2        1.0  0.97424  0.48810  0.15319  1.0000
  H   H1        1.0  0.97685  0.49096  0.01549  1.0000
  H   H2        1.0  0.05903  0.54259  0.00740  1.0000
  C   C7        1.0  0.51801  0.48550  0.31570  1.0000
  C   C8        1.0  0.50854  0.49258  0.23494  1.0000
  C   C9        1.0  0.49096  0.50616  0.23598  1.0000
  C   C10       1.0  0.48401  0.51547  0.31707  1.0000
  N   N3        1.0  0.48100  0.50985  0.15585  1.0000
  C   C11       1.0  0.48766  0.50308  0.07505  1.0000
  C   C12       1.0  0.50672  0.49178  0.07400  1.0000
  N   N4        1.0  0.51598  0.48690  0.15319  1.0000
  H   H3        1.0  0.51309  0.48663  0.01549  1.0000
  H   H4        1.0  0.46147  0.51718  0.00740  1.0000
  C   C13       1.0  0.51858  0.03330  0.31571  1.0000
  C   C14       1.0  0.51149  0.01675  0.23496  1.0000
  C   C15       1.0  0.49791  0.98558  0.23601  1.0000
  C   C16       1.0  0.48860  0.96932  0.31711  1.0000
  N   N5        1.0  0.49421  0.97194  0.15588  1.0000
  C   C17       1.0  0.50098  0.98535  0.07507  1.0000
  C   C18       1.0  0.51229  0.01573  0.07402  1.0000
  N   N6        1.0  0.51716  0.02985  0.15320  1.0000
  H   H5        1.0  0.51743  0.02724  0.01550  1.0000
  H   H6        1.0  0.48687  0.94506  0.00745  1.0000
  C   C19       1.0  0.25968  0.55008  0.27370  1.0000
  C   C20       1.0  0.28568  0.54917  0.26376  1.0000
  H   H7        1.0  0.29254  0.54853  0.20022  1.0000
  H   H8        1.0  0.24960  0.55116  0.21669  1.0000
  C   C21       1.0  0.25780  0.55227  0.01640  1.0000
  H   H9        1.0  0.23674  0.55132  0.01031  1.0000
  H   H10       1.0  0.27283  0.57225  0.05209  1.0000
  H   H11       1.0  0.25468  0.53339  0.05497  1.0000
  C   C22       1.0  0.45411  0.71047  0.27376  1.0000
  C   C23       1.0  0.45501  0.73737  0.26383  1.0000
  H   H12       1.0  0.45565  0.74487  0.20030  1.0000
  H   H13       1.0  0.45302  0.69931  0.21675  1.0000
  C   C24       1.0  0.45197  0.70639  0.01646  1.0000
  H   H14       1.0  0.45293  0.68629  0.01036  1.0000
  H   H15       1.0  0.43199  0.70145  0.05216  1.0000
  H   H16       1.0  0.47084  0.72216  0.05503  1.0000
  C   C25       1.0  0.29362  0.74451  0.27388  1.0000
  C   C26       1.0  0.26671  0.71851  0.26391  1.0000
  H   H17       1.0  0.25920  0.71167  0.20038  1.0000
  H   H18       1.0  0.30477  0.75460  0.21688  1.0000
  C   C27       1.0  0.29773  0.74630  0.01658  1.0000
  H   H19       1.0  0.31784  0.76736  0.01052  1.0000
  H   H20       1.0  0.30266  0.73125  0.05222  1.0000
  H   H21       1.0  0.28197  0.74941  0.05518  1.0000
  C   C28       1.0  0.74409  0.45223  0.27241  1.0000
  C   C29       1.0  0.71797  0.45289  0.26241  1.0000
  H   H22       1.0  0.71109  0.45344  0.19885  1.0000
  H   H23       1.0  0.75418  0.45117  0.21540  1.0000
  C   C30       1.0  0.74629  0.45067  0.01510  1.0000
  H   H24       1.0  0.76746  0.45187  0.00902  1.0000
  H   H25       1.0  0.73142  0.43066  0.05093  1.0000
  H   H26       1.0  0.74920  0.46950  0.05354  1.0000
  C   C31       1.0  0.55187  0.29265  0.27240  1.0000
  C   C32       1.0  0.55120  0.26587  0.26238  1.0000
  H   H27       1.0  0.55062  0.25843  0.19881  1.0000
  H   H28       1.0  0.55290  0.30379  0.21539  1.0000
  C   C33       1.0  0.55355  0.29644  0.01510  1.0000
  H   H29       1.0  0.55235  0.31642  0.00903  1.0000
  H   H30       1.0  0.57356  0.30157  0.05090  1.0000
  H   H31       1.0  0.53472  0.28053  0.05354  1.0000
  C   C34       1.0  0.71140  0.26006  0.27228  1.0000
  C   C35       1.0  0.73819  0.28616  0.26229  1.0000
  H   H32       1.0  0.74564  0.29305  0.19873  1.0000
  H   H33       1.0  0.70027  0.24995  0.21527  1.0000
  C   C36       1.0  0.70765  0.25782  0.01498  1.0000
  H   H34       1.0  0.68768  0.23664  0.00888  1.0000
  H   H35       1.0  0.70251  0.27269  0.05081  1.0000
  H   H36       1.0  0.72357  0.25490  0.05340  1.0000
  N   N7        1.0  0.16088  0.58333  0.33512  1.0000
  C   C37       1.0  0.17776  0.61415  0.31897  1.0000
  C   C38       1.0  0.12969  0.56775  0.33096  1.0000
  C   C39       1.0  0.17737  0.56921  0.35557  1.0000
  C   C40       1.0  0.19871  0.58063  0.42395  1.0000
  C   C41       1.0  0.22164  0.57432  0.42610  1.0000
  C   C42       1.0  0.22299  0.55452  0.36478  1.0000
  C   C43       1.0  0.19967  0.54075  0.30279  1.0000
  C   C44       1.0  0.17786  0.54856  0.29661  1.0000
  C   C45       1.0  0.17738  0.63434  0.38009  1.0000
  C   C46       1.0  0.19991  0.66374  0.38111  1.0000
  C   C47       1.0  0.22470  0.67370  0.32498  1.0000
  C   C48       1.0  0.22376  0.65394  0.25898  1.0000
  C   C49       1.0  0.20039  0.62495  0.25456  1.0000
  C   C50       1.0  0.11254  0.56966  0.40015  1.0000
  C   C51       1.0  0.08179  0.55488  0.39423  1.0000
  C   C52       1.0  0.06649  0.53607  0.32148  1.0000
  C   C53       1.0  0.08410  0.53327  0.25481  1.0000
  C   C54       1.0  0.11485  0.54960  0.25750  1.0000
  H   H37       1.0  0.19901  0.67726  0.42837  1.0000
  H   H38       1.0  0.16201  0.62746  0.42934  1.0000
  H   H39       1.0  0.20199  0.61076  0.21149  1.0000
  H   H40       1.0  0.24127  0.65966  0.21782  1.0000
  H   H41       1.0  0.20003  0.59675  0.46492  1.0000
  H   H42       1.0  0.23861  0.58635  0.46872  1.0000
  H   H43       1.0  0.12232  0.58195  0.45564  1.0000
  H   H44       1.0  0.07068  0.55820  0.44458  1.0000
  H   H45       1.0  0.07485  0.51891  0.20309  1.0000
  H   H46       1.0  0.12631  0.54785  0.20527  1.0000
  H   H47       1.0  0.16360  0.54041  0.24446  1.0000
  H   H48       1.0  0.19940  0.52630  0.25674  1.0000
  N   N8        1.0  0.42083  0.57840  0.33506  1.0000
  C   C55       1.0  0.39000  0.56448  0.31885  1.0000
  C   C56       1.0  0.43638  0.56277  0.33089  1.0000
  C   C57       1.0  0.43497  0.60901  0.35547  1.0000
  C   C58       1.0  0.42351  0.61893  0.42370  1.0000
  C   C59       1.0  0.42990  0.64819  0.42615  1.0000
  C   C60       1.0  0.44969  0.66934  0.36482  1.0000
  C   C61       1.0  0.46341  0.65976  0.30272  1.0000
  C   C62       1.0  0.45564  0.63016  0.29657  1.0000
  C   C63       1.0  0.36980  0.54390  0.37995  1.0000
  C   C64       1.0  0.34042  0.53712  0.38108  1.0000
  C   C65       1.0  0.33048  0.55195  0.32489  1.0000
  C   C66       1.0  0.35024  0.57075  0.25888  1.0000
  C   C67       1.0  0.37923  0.57634  0.25447  1.0000
  C   C68       1.0  0.43446  0.54370  0.40008  1.0000
  C   C69       1.0  0.44923  0.52772  0.39417  1.0000
  C   C70       1.0  0.46804  0.53123  0.32143  1.0000
  C   C71       1.0  0.47086  0.55165  0.25478  1.0000
  C   C72       1.0  0.45455  0.56608  0.25747  1.0000
  H   H49       1.0  0.32687  0.52264  0.42815  1.0000
  H   H50       1.0  0.37666  0.53539  0.42915  1.0000
  H   H51       1.0  0.39343  0.59212  0.21140  1.0000
  H   H52       1.0  0.34454  0.58255  0.21769  1.0000
  H   H53       1.0  0.40748  0.60413  0.46497  1.0000
  H   H54       1.0  0.41790  0.65313  0.46889  1.0000
  H   H55       1.0  0.42216  0.54118  0.45556  1.0000
  H   H56       1.0  0.44590  0.51328  0.44451  1.0000
  H   H57       1.0  0.48523  0.55675  0.20307  1.0000
  H   H58       1.0  0.45632  0.57930  0.20525  1.0000
  H   H59       1.0  0.46374  0.62406  0.24428  1.0000
  H   H60       1.0  0.47785  0.67395  0.25664  1.0000
  N   N9        1.0  0.42570  0.84322  0.33522  1.0000
  C   C73       1.0  0.43963  0.82632  0.31902  1.0000
  C   C74       1.0  0.44133  0.87440  0.33102  1.0000
  C   C75       1.0  0.39508  0.82673  0.35559  1.0000
  C   C76       1.0  0.38518  0.80536  0.42384  1.0000
  C   C77       1.0  0.35593  0.78248  0.42616  1.0000
  C   C78       1.0  0.33476  0.78117  0.36498  1.0000
  C   C79       1.0  0.34434  0.80450  0.30297  1.0000
  C   C80       1.0  0.37395  0.82631  0.29677  1.0000
  C   C81       1.0  0.46023  0.82673  0.38011  1.0000
  C   C82       1.0  0.46703  0.80415  0.38118  1.0000
  C   C83       1.0  0.45221  0.77937  0.32499  1.0000
  C   C84       1.0  0.43340  0.78033  0.25898  1.0000
  C   C85       1.0  0.42779  0.80371  0.25457  1.0000
  C   C86       1.0  0.46037  0.89155  0.40022  1.0000
  C   C87       1.0  0.47636  0.92231  0.39428  1.0000
  C   C88       1.0  0.47285  0.93760  0.32149  1.0000
  C   C89       1.0  0.45245  0.91999  0.25482  1.0000
  C   C90       1.0  0.43803  0.88924  0.25753  1.0000
  H   H61       1.0  0.48152  0.80509  0.42824  1.0000
  H   H62       1.0  0.46874  0.84211  0.42930  1.0000
  H   H63       1.0  0.41200  0.80212  0.21152  1.0000
  H   H64       1.0  0.42161  0.76282  0.21780  1.0000
  H   H65       1.0  0.39998  0.80412  0.46509  1.0000
  H   H66       1.0  0.35096  0.76556  0.46901  1.0000
  H   H67       1.0  0.46288  0.88178  0.45574  1.0000
  H   H68       1.0  0.49078  0.93342  0.44464  1.0000
  H   H69       1.0  0.44735  0.92924  0.20308  1.0000
  H   H70       1.0  0.42482  0.87778  0.20529  1.0000
  H   H71       1.0  0.38006  0.84052  0.24451  1.0000
  H   H72       1.0  0.33016  0.80477  0.25692  1.0000
  N   N10       1.0  0.84442  0.42121  0.33264  1.0000
  C   C91       1.0  0.82752  0.39036  0.31645  1.0000
  C   C92       1.0  0.87566  0.43702  0.32824  1.0000
  C   C93       1.0  0.82768  0.43506  0.35356  1.0000
  C   C94       1.0  0.80660  0.42359  0.42267  1.0000
  C   C95       1.0  0.78334  0.42940  0.42527  1.0000
  C   C96       1.0  0.78133  0.44872  0.36348  1.0000
  C   C97       1.0  0.80443  0.46264  0.30083  1.0000
  C   C98       1.0  0.82656  0.45530  0.29423  1.0000
  C   C99       1.0  0.82769  0.37019  0.37815  1.0000
  C   C100      1.0  0.80503  0.34086  0.37952  1.0000
  C   C101      1.0  0.78027  0.33094  0.32328  1.0000
  C   C102      1.0  0.78142  0.35064  0.25674  1.0000
  C   C103      1.0  0.80496  0.37955  0.25179  1.0000
  C   C104      1.0  0.89298  0.43431  0.39526  1.0000
  C   C105      1.0  0.92374  0.44941  0.38927  1.0000
  C   C106      1.0  0.93902  0.46959  0.31929  1.0000
  C   C107      1.0  0.92123  0.47311  0.25492  1.0000
  C   C108      1.0  0.89049  0.45634  0.25700  1.0000
  H   H73       1.0  0.80585  0.32738  0.42708  1.0000
  H   H74       1.0  0.84289  0.37707  0.42783  1.0000
  H   H75       1.0  0.80349  0.39376  0.20850  1.0000
  H   H76       1.0  0.76396  0.34497  0.21541  1.0000
  H   H77       1.0  0.80583  0.40786  0.46433  1.0000
  H   H78       1.0  0.76664  0.41738  0.46876  1.0000
  H   H79       1.0  0.88337  0.42125  0.44946  1.0000
  H   H80       1.0  0.93485  0.44534  0.43783  1.0000
  H   H81       1.0  0.93029  0.48839  0.20550  1.0000
  H   H82       1.0  0.87906  0.45872  0.20596  1.0000
  H   H83       1.0  0.84037  0.46327  0.24106  1.0000
  H   H84       1.0  0.80423  0.47672  0.25427  1.0000
  N   N11       1.0  0.58291  0.42402  0.33271  1.0000
  C   C109      1.0  0.61376  0.43798  0.31651  1.0000
  C   C110      1.0  0.56710  0.43945  0.32829  1.0000
  C   C111      1.0  0.56908  0.39344  0.35367  1.0000
  C   C112      1.0  0.58057  0.38382  0.42269  1.0000
  C   C113      1.0  0.57476  0.35474  0.42526  1.0000
  C   C114      1.0  0.55543  0.33342  0.36348  1.0000
  C   C115      1.0  0.54151  0.34261  0.30089  1.0000
  C   C116      1.0  0.54883  0.37207  0.29437  1.0000
  C   C117      1.0  0.63393  0.45837  0.37813  1.0000
  C   C118      1.0  0.66326  0.46501  0.37961  1.0000
  C   C119      1.0  0.67319  0.45019  0.32335  1.0000
  C   C120      1.0  0.65349  0.43163  0.25680  1.0000
  C   C121      1.0  0.62458  0.42625  0.25185  1.0000
  C   C122      1.0  0.56980  0.45948  0.39531  1.0000
  C   C123      1.0  0.55470  0.47514  0.38930  1.0000
  C   C124      1.0  0.53451  0.47022  0.31930  1.0000
  C   C125      1.0  0.53101  0.44893  0.25492  1.0000
  C   C126      1.0  0.54778  0.43496  0.25704  1.0000
  H   H85       1.0  0.67672  0.47930  0.42720  1.0000
  H   H86       1.0  0.62704  0.46662  0.42800  1.0000
  H   H87       1.0  0.61038  0.41056  0.20859  1.0000
  H   H88       1.0  0.65917  0.41984  0.21547  1.0000
  H   H89       1.0  0.59631  0.39878  0.46432  1.0000
  H   H90       1.0  0.58680  0.35007  0.46870  1.0000
  H   H91       1.0  0.58286  0.46293  0.44950  1.0000
  H   H92       1.0  0.55877  0.49032  0.43784  1.0000
  H   H93       1.0  0.51573  0.44270  0.20553  1.0000
  H   H94       1.0  0.54541  0.42115  0.20600  1.0000
  H   H95       1.0  0.54081  0.37790  0.24128  1.0000
  H   H96       1.0  0.52738  0.32832  0.25442  1.0000
  N   N12       1.0  0.58007  0.15968  0.33263  1.0000
  C   C127      1.0  0.56611  0.17656  0.31643  1.0000
  C   C128      1.0  0.56464  0.12843  0.32823  1.0000
  C   C129      1.0  0.61066  0.17644  0.35351  1.0000
  C   C130      1.0  0.62027  0.19750  0.42267  1.0000
  C   C131      1.0  0.64934  0.22079  0.42515  1.0000
  C   C132      1.0  0.67066  0.22281  0.36332  1.0000
  C   C133      1.0  0.66146  0.19972  0.30063  1.0000
  C   C134      1.0  0.63201  0.17755  0.29417  1.0000
  C   C135      1.0  0.54573  0.17636  0.37807  1.0000
  C   C136      1.0  0.53909  0.19904  0.37952  1.0000
  C   C137      1.0  0.55392  0.22380  0.32327  1.0000
  C   C138      1.0  0.57245  0.22264  0.25666  1.0000
  C   C139      1.0  0.57783  0.19911  0.25174  1.0000
  C   C140      1.0  0.54461  0.11112  0.39526  1.0000
  C   C141      1.0  0.52895  0.08036  0.38928  1.0000
  C   C142      1.0  0.53387  0.06508  0.31931  1.0000
  C   C143      1.0  0.55517  0.08286  0.25492  1.0000
  C   C144      1.0  0.56913  0.11360  0.25699  1.0000
  H   H97       1.0  0.52483  0.19825  0.42717  1.0000
  H   H98       1.0  0.53749  0.16123  0.42796  1.0000
  H   H99       1.0  0.59352  0.20060  0.20847  1.0000
  H   H100      1.0  0.58425  0.24012  0.21539  1.0000
  H   H101      1.0  0.60528  0.19826  0.46419  1.0000
  H   H102      1.0  0.65400  0.23749  0.46862  1.0000
  H   H103      1.0  0.54116  0.12072  0.44945  1.0000
  H   H104      1.0  0.51377  0.06925  0.43782  1.0000
  H   H105      1.0  0.56138  0.07380  0.20550  1.0000
  H   H106      1.0  0.58293  0.12503  0.20594  1.0000
  H   H107      1.0  0.62617  0.16373  0.24102  1.0000
  H   H108      1.0  0.67577  0.19989  0.25419  1.0000
  C   C145      1.0  0.01804  0.50986  0.39649  1.0000
  C   C146      1.0  0.98730  0.49420  0.39602  1.0000
  H   H109      1.0  0.97713  0.48891  0.45687  1.0000
  H   H110      1.0  0.02812  0.51349  0.45711  1.0000
  C   C147      1.0  0.03595  0.52788  0.65910  1.0000
  H   H111      1.0  0.02784  0.53990  0.62054  1.0000
  H   H112      1.0  0.03406  0.50975  0.61913  1.0000
  C   C148      1.0  0.49424  0.50898  0.39647  1.0000
  C   C149      1.0  0.50990  0.49390  0.39601  1.0000
  H   H113      1.0  0.51520  0.48902  0.45687  1.0000
  H   H114      1.0  0.49062  0.51545  0.45709  1.0000
  C   C150      1.0  0.47617  0.50881  0.65910  1.0000
  H   H115      1.0  0.46415  0.48868  0.62056  1.0000
  H   H116      1.0  0.49429  0.52505  0.61909  1.0000
  C   C151      1.0  0.49510  0.98606  0.39651  1.0000
  C   C152      1.0  0.51018  0.01680  0.39603  1.0000
  H   H117      1.0  0.51506  0.02697  0.45689  1.0000
  H   H118      1.0  0.48863  0.97598  0.45713  1.0000
  C   C153      1.0  0.49524  0.96814  0.65913  1.0000
  H   H119      1.0  0.51537  0.97625  0.62058  1.0000
  H   H120      1.0  0.47901  0.97003  0.61913  1.0000
  C   C154      1.0  0.30256  0.55006  0.33840  1.0000
  C   C155      1.0  0.29154  0.55102  0.42451  1.0000
  C   C156      1.0  0.26457  0.55082  0.43439  1.0000
  C   C157      1.0  0.24838  0.55105  0.35879  1.0000
  N   N13       1.0  0.25510  0.55084  0.51904  1.0000
  C   C158      1.0  0.26989  0.55203  0.59453  1.0000
  C   C159      1.0  0.29711  0.55364  0.58438  1.0000
  N   N14       1.0  0.30658  0.55300  0.50068  1.0000
  H   H121      1.0  0.30955  0.55491  0.63838  1.0000
  C   C160      1.0  0.45413  0.75336  0.33849  1.0000
  C   C161      1.0  0.45318  0.74138  0.42459  1.0000
  C   C162      1.0  0.45339  0.71462  0.43445  1.0000
  C   C163      1.0  0.45316  0.69820  0.35884  1.0000
  N   N15       1.0  0.45339  0.70513  0.51910  1.0000
  C   C164      1.0  0.45220  0.71873  0.59460  1.0000
  C   C165      1.0  0.45058  0.74434  0.58446  1.0000
  N   N16       1.0  0.45120  0.75444  0.50078  1.0000
  H   H122      1.0  0.44930  0.75550  0.63848  1.0000
  C   C166      1.0  0.25073  0.70162  0.33854  1.0000
  C   C167      1.0  0.26271  0.71262  0.42465  1.0000
  C   C168      1.0  0.28948  0.73959  0.43457  1.0000
  C   C169      1.0  0.30589  0.75579  0.35899  1.0000
  N   N17       1.0  0.29898  0.74904  0.51923  1.0000
  C   C170      1.0  0.28539  0.73423  0.59470  1.0000
  C   C171      1.0  0.25977  0.70701  0.58451  1.0000
  N   N18       1.0  0.24966  0.69756  0.50081  1.0000
  H   H123      1.0  0.24861  0.69455  0.63850  1.0000
  C   C172      1.0  0.70110  0.45203  0.33703  1.0000
  C   C173      1.0  0.71221  0.45124  0.42315  1.0000
  C   C174      1.0  0.73933  0.45173  0.43307  1.0000
  C   C175      1.0  0.75559  0.45162  0.35752  1.0000
  N   N19       1.0  0.74890  0.45193  0.51774  1.0000
  C   C176      1.0  0.73409  0.45068  0.59323  1.0000
  C   C177      1.0  0.70672  0.44876  0.58305  1.0000
  N   N20       1.0  0.69715  0.44919  0.49934  1.0000
  H   H124      1.0  0.69425  0.44741  0.63706  1.0000
  C   C178      1.0  0.55211  0.24988  0.33697  1.0000
  C   C179      1.0  0.55292  0.26179  0.42311  1.0000
  C   C180      1.0  0.55243  0.28841  0.43305  1.0000
  C   C181      1.0  0.55251  0.30477  0.35752  1.0000
  N   N21       1.0  0.55225  0.29779  0.51773  1.0000
  C   C182      1.0  0.55352  0.28423  0.59320  1.0000
  C   C183      1.0  0.55543  0.25878  0.58301  1.0000
  N   N22       1.0  0.55499  0.24878  0.49928  1.0000
  H   H125      1.0  0.55680  0.24767  0.63699  1.0000
  C   C184      1.0  0.75420  0.30304  0.33691  1.0000
  C   C185      1.0  0.74229  0.29192  0.42304  1.0000
  C   C186      1.0  0.71566  0.26480  0.43294  1.0000
  C   C187      1.0  0.69930  0.24854  0.35738  1.0000
  N   N23       1.0  0.70630  0.25522  0.51761  1.0000
  C   C188      1.0  0.71986  0.27003  0.59310  1.0000
  C   C189      1.0  0.74531  0.29739  0.58295  1.0000
  N   N24       1.0  0.75531  0.30697  0.49924  1.0000
  H   H126      1.0  0.75643  0.30986  0.63696  1.0000
