data_image0
_chemical_formula_structural       C9O2H2CHC3O2H2CHC3O2H2CHC3O2H2CHC3O2H2CHC3O2H2CHC3OHOHCHC3OHOHCHC3OHOHCHC3OHOHCHC3OHOHCHC3OHOHCHC3OHOHCHC3OHOHCHC3OHOHCHC3OHOHCHC3OHOHCHC3OHOHCHCNCNCN4CNCNCN4CNCNCN4CNCNCN4CNCNCN4CNCNCN5CNCN5CNCN5CNCN5CNCN5CNCN5CNCN4C3OHOHCHC3OHOHCHC3OHOHCHC3OHOHCHC3OHOHCHC3OHOHCHC3O2H2CHC3O2H2CHC3O2H2CHC3O2H2CHC3O2H2CHC3O2H2CHC3O2H2CHC3O2H2CHC3O2H2CHC3O2H2CHC3O2H2CHC3O2H2CH
_chemical_formula_sum              "C180 O72 H108 N72"
_cell_length_a       57.0299
_cell_length_b       57.0298
_cell_length_c       14.7104
_cell_angle_alpha    90
_cell_angle_beta     90
_cell_angle_gamma    120

_space_group_name_H-M_alt    "P 1"
_space_group_IT_number       1

loop_
  _space_group_symop_operation_xyz
  'x, y, z'

loop_
  _atom_site_type_symbol
  _atom_site_label
  _atom_site_symmetry_multiplicity
  _atom_site_fract_x
  _atom_site_fract_y
  _atom_site_fract_z
  _atom_site_occupancy
  C   C1        1.0  0.29511  0.53896  0.36278  1.0000
  C   C2        1.0  0.47743  0.75284  0.36276  1.0000
  C   C3        1.0  0.26354  0.72129  0.36278  1.0000
  C   C4        1.0  0.72896  0.46978  0.36265  1.0000
  C   C5        1.0  0.54663  0.25588  0.36268  1.0000
  C   C6        1.0  0.76051  0.28744  0.36272  1.0000
  C   C7        1.0  0.22741  0.42409  0.34863  1.0000
  C   C8        1.0  0.22201  0.40947  0.26601  1.0000
  C   C9        1.0  0.20719  0.38077  0.26532  1.0000
  O   O1        1.0  0.23139  0.42289  0.18567  1.0000
  O   O2        1.0  0.20386  0.36776  0.18456  1.0000
  H   H1        1.0  0.24893  0.42401  0.17450  1.0000
  H   H2        1.0  0.18579  0.36315  0.16240  1.0000
  C   C10       1.0  0.24589  0.45181  0.35050  1.0000
  H   H3        1.0  0.26542  0.45755  0.34700  1.0000
  C   C11       1.0  0.59231  0.80006  0.34792  1.0000
  C   C12       1.0  0.60694  0.80956  0.26543  1.0000
  C   C13       1.0  0.63564  0.82343  0.26479  1.0000
  O   O3        1.0  0.59354  0.80578  0.18517  1.0000
  O   O4        1.0  0.64867  0.83337  0.18421  1.0000
  H   H4        1.0  0.59246  0.82225  0.17472  1.0000
  H   H5        1.0  0.65330  0.81999  0.16138  1.0000
  C   C14       1.0  0.56457  0.79078  0.34974  1.0000
  H   H6        1.0  0.55880  0.80454  0.34510  1.0000
  C   C15       1.0  0.21637  0.78899  0.34826  1.0000
  C   C16       1.0  0.20689  0.79412  0.26569  1.0000
  C   C17       1.0  0.19302  0.80894  0.26486  1.0000
  O   O5        1.0  0.21072  0.78450  0.18550  1.0000
  O   O6        1.0  0.18311  0.81200  0.18417  1.0000
  H   H7        1.0  0.19427  0.76694  0.17503  1.0000
  H   H8        1.0  0.19646  0.83004  0.16143  1.0000
  C   C18       1.0  0.22562  0.77052  0.35028  1.0000
  H   H9        1.0  0.21183  0.75099  0.34643  1.0000
  C   C19       1.0  0.79666  0.58466  0.34820  1.0000
  C   C20       1.0  0.80193  0.59926  0.26560  1.0000
  C   C21       1.0  0.81675  0.62796  0.26482  1.0000
  O   O7        1.0  0.79245  0.58582  0.18533  1.0000
  O   O8        1.0  0.81994  0.64094  0.18408  1.0000
  H   H10       1.0  0.77490  0.58471  0.17445  1.0000
  H   H11       1.0  0.83801  0.64561  0.16168  1.0000
  C   C22       1.0  0.77818  0.55693  0.35011  1.0000
  H   H12       1.0  0.75865  0.55119  0.34622  1.0000
  C   C23       1.0  0.43175  0.20870  0.34863  1.0000
  C   C24       1.0  0.41713  0.19951  0.26601  1.0000
  C   C25       1.0  0.38843  0.18564  0.26535  1.0000
  O   O9        1.0  0.43055  0.20357  0.18565  1.0000
  O   O10       1.0  0.37541  0.17597  0.18459  1.0000
  H   H13       1.0  0.43166  0.18716  0.17440  1.0000
  H   H14       1.0  0.37080  0.18944  0.16249  1.0000
  C   C26       1.0  0.45947  0.21795  0.35047  1.0000
  H   H15       1.0  0.46521  0.20415  0.34696  1.0000
  C   C27       1.0  0.80773  0.21978  0.34799  1.0000
  C   C28       1.0  0.81722  0.21464  0.26550  1.0000
  C   C29       1.0  0.83109  0.19981  0.26485  1.0000
  O   O11       1.0  0.81344  0.22426  0.18524  1.0000
  O   O12       1.0  0.84103  0.19672  0.18427  1.0000
  H   H16       1.0  0.82990  0.24181  0.17479  1.0000
  H   H17       1.0  0.82764  0.17870  0.16144  1.0000
  C   C30       1.0  0.79845  0.23824  0.34981  1.0000
  H   H18       1.0  0.81221  0.25776  0.34525  1.0000
  C   C31       1.0  0.22583  0.18970  0.34946  1.0000
  C   C32       1.0  0.21647  0.19495  0.26687  1.0000
  C   C33       1.0  0.19792  0.20467  0.26711  1.0000
  O   O13       1.0  0.18863  0.20829  0.18596  1.0000
  H   H19       1.0  0.20079  0.22729  0.16879  1.0000
  O   O14       1.0  0.22461  0.18997  0.18559  1.0000
  H   H20       1.0  0.24063  0.20706  0.16721  1.0000
  C   C34       1.0  0.24578  0.18235  0.34924  1.0000
  H   H21       1.0  0.26495  0.19719  0.34820  1.0000
  C   C35       1.0  0.82671  0.03284  0.34906  1.0000
  C   C36       1.0  0.82092  0.01795  0.26687  1.0000
  C   C37       1.0  0.81120  0.98969  0.26778  1.0000
  O   O15       1.0  0.80712  0.97653  0.18692  1.0000
  H   H22       1.0  0.78806  0.96974  0.17075  1.0000
  O   O16       1.0  0.82545  0.03083  0.18524  1.0000
  H   H23       1.0  0.80826  0.02970  0.16788  1.0000
  C   C38       1.0  0.83405  0.06013  0.34814  1.0000
  H   H24       1.0  0.81925  0.06447  0.34441  1.0000
  C   C39       1.0  0.98355  0.79059  0.34899  1.0000
  C   C40       1.0  0.99836  0.79975  0.26668  1.0000
  C   C41       1.0  0.02663  0.81829  0.26738  1.0000
  O   O17       1.0  0.03972  0.82741  0.18643  1.0000
  H   H25       1.0  0.04652  0.81517  0.17003  1.0000
  O   O18       1.0  0.98542  0.79144  0.18514  1.0000
  H   H26       1.0  0.98654  0.77539  0.16754  1.0000
  C   C42       1.0  0.95626  0.77064  0.34825  1.0000
  H   H27       1.0  0.95193  0.75150  0.34499  1.0000
  C   C43       1.0  0.79822  0.81904  0.34786  1.0000
  C   C44       1.0  0.80689  0.81244  0.26630  1.0000
  C   C45       1.0  0.82544  0.80272  0.26815  1.0000
  O   O19       1.0  0.83415  0.79791  0.18775  1.0000
  H   H28       1.0  0.82168  0.77877  0.17317  1.0000
  O   O20       1.0  0.79817  0.81624  0.18426  1.0000
  H   H29       1.0  0.78205  0.79890  0.16860  1.0000
  C   C46       1.0  0.77831  0.82643  0.34610  1.0000
  H   H30       1.0  0.75924  0.81173  0.33865  1.0000
  C   C47       1.0  0.19736  0.97590  0.34911  1.0000
  C   C48       1.0  0.20291  0.99065  0.26671  1.0000
  C   C49       1.0  0.21262  0.01891  0.26725  1.0000
  O   O21       1.0  0.21651  0.03194  0.18624  1.0000
  H   H31       1.0  0.23554  0.03876  0.16964  1.0000
  O   O22       1.0  0.19819  0.97764  0.18526  1.0000
  H   H32       1.0  0.21533  0.97874  0.16748  1.0000
  C   C50       1.0  0.19001  0.94860  0.34859  1.0000
  H   H33       1.0  0.20483  0.94427  0.34610  1.0000
  C   C51       1.0  0.04050  0.21815  0.34888  1.0000
  C   C52       1.0  0.02564  0.20904  0.26664  1.0000
  C   C53       1.0  0.99738  0.19049  0.26748  1.0000
  O   O23       1.0  0.98424  0.18141  0.18658  1.0000
  H   H34       1.0  0.97745  0.19367  0.17034  1.0000
  O   O24       1.0  0.03854  0.21738  0.18505  1.0000
  H   H35       1.0  0.03742  0.23344  0.16762  1.0000
  C   C54       1.0  0.06779  0.23810  0.34804  1.0000
  H   H36       1.0  0.07213  0.25724  0.34461  1.0000
  C   C55       1.0  0.23537  0.59347  0.36219  1.0000
  C   C56       1.0  0.21708  0.60354  0.35574  1.0000
  C   C57       1.0  0.22629  0.63174  0.35657  1.0000
  O   O25       1.0  0.20762  0.63987  0.34930  1.0000
  H   H37       1.0  0.20519  0.64146  0.28383  1.0000
  O   O26       1.0  0.19003  0.58626  0.34452  1.0000
  H   H38       1.0  0.18219  0.58190  0.40596  1.0000
  C   C58       1.0  0.22567  0.56514  0.35914  1.0000
  H   H39       1.0  0.20540  0.55174  0.35368  1.0000
  C   C59       1.0  0.42294  0.63860  0.36232  1.0000
  C   C60       1.0  0.41286  0.61024  0.35593  1.0000
  C   C61       1.0  0.38467  0.59126  0.35674  1.0000
  O   O27       1.0  0.37653  0.56445  0.34954  1.0000
  H   H40       1.0  0.37495  0.56042  0.28409  1.0000
  O   O28       1.0  0.43015  0.60047  0.34489  1.0000
  H   H41       1.0  0.43448  0.59699  0.40638  1.0000
  C   C62       1.0  0.45127  0.65722  0.35934  1.0000
  H   H42       1.0  0.46467  0.65035  0.35398  1.0000
  C   C63       1.0  0.37778  0.78102  0.36214  1.0000
  C   C64       1.0  0.40615  0.79931  0.35577  1.0000
  C   C65       1.0  0.42513  0.79010  0.35657  1.0000
  O   O29       1.0  0.45194  0.80877  0.34937  1.0000
  H   H43       1.0  0.45597  0.81122  0.28392  1.0000
  O   O30       1.0  0.41592  0.82637  0.34468  1.0000
  H   H44       1.0  0.41940  0.83418  0.40615  1.0000
  C   C66       1.0  0.35916  0.79073  0.35913  1.0000
  H   H45       1.0  0.36604  0.81100  0.35379  1.0000
  C   C67       1.0  0.78869  0.41526  0.36209  1.0000
  C   C68       1.0  0.80697  0.40519  0.35572  1.0000
  C   C69       1.0  0.79776  0.37700  0.35654  1.0000
  O   O31       1.0  0.81644  0.36886  0.34934  1.0000
  H   H46       1.0  0.81888  0.36728  0.28387  1.0000
  O   O32       1.0  0.83403  0.42248  0.34462  1.0000
  H   H47       1.0  0.84185  0.42682  0.40609  1.0000
  C   C70       1.0  0.79839  0.44360  0.35907  1.0000
  H   H48       1.0  0.81867  0.45699  0.35371  1.0000
  C   C71       1.0  0.60113  0.37013  0.36202  1.0000
  C   C72       1.0  0.61120  0.39849  0.35565  1.0000
  C   C73       1.0  0.63940  0.41747  0.35647  1.0000
  O   O33       1.0  0.64753  0.44428  0.34930  1.0000
  H   H49       1.0  0.64912  0.44832  0.28385  1.0000
  O   O34       1.0  0.59392  0.40826  0.34456  1.0000
  H   H50       1.0  0.58957  0.41173  0.40603  1.0000
  C   C74       1.0  0.57280  0.35150  0.35899  1.0000
  H   H51       1.0  0.55940  0.35837  0.35361  1.0000
  C   C75       1.0  0.64627  0.22770  0.36229  1.0000
  C   C76       1.0  0.61791  0.20941  0.35596  1.0000
  C   C77       1.0  0.59893  0.21862  0.35674  1.0000
  O   O35       1.0  0.57212  0.19995  0.34961  1.0000
  H   H52       1.0  0.56807  0.19747  0.28416  1.0000
  O   O36       1.0  0.60813  0.18235  0.34500  1.0000
  H   H53       1.0  0.60467  0.17456  0.40651  1.0000
  C   C78       1.0  0.66489  0.21799  0.35932  1.0000
  H   H54       1.0  0.65801  0.19771  0.35402  1.0000
  C   C79       1.0  0.15761  0.25249  0.35032  1.0000
  N   N1        1.0  0.16907  0.27994  0.35027  1.0000
  C   C80       1.0  0.15395  0.29243  0.35046  1.0000
  N   N2        1.0  0.12648  0.27647  0.35062  1.0000
  C   C81       1.0  0.11404  0.24886  0.35061  1.0000
  N   N3        1.0  0.13001  0.23734  0.35054  1.0000
  N   N4        1.0  0.17400  0.24197  0.35013  1.0000
  N   N5        1.0  0.08712  0.23256  0.35093  1.0000
  N   N6        1.0  0.16470  0.31939  0.35042  1.0000
  C   C82       1.0  0.76389  0.90182  0.35043  1.0000
  N   N7        1.0  0.73644  0.88583  0.35003  1.0000
  C   C83       1.0  0.72395  0.85821  0.35041  1.0000
  N   N8        1.0  0.73991  0.84671  0.35100  1.0000
  C   C84       1.0  0.76752  0.86188  0.35128  1.0000
  N   N9        1.0  0.77904  0.88936  0.35115  1.0000
  N   N10       1.0  0.77442  0.92873  0.34986  1.0000
  N   N11       1.0  0.78380  0.85124  0.35216  1.0000
  N   N12       1.0  0.69698  0.84201  0.35026  1.0000
  C   C85       1.0  0.11457  0.85879  0.35003  1.0000
  N   N13       1.0  0.13055  0.84733  0.35005  1.0000
  C   C86       1.0  0.15816  0.86244  0.35043  1.0000
  N   N14       1.0  0.16967  0.88991  0.35066  1.0000
  C   C87       1.0  0.15451  0.90235  0.35054  1.0000
  N   N15       1.0  0.12703  0.88640  0.35030  1.0000
  N   N16       1.0  0.08765  0.84241  0.34961  1.0000
  N   N17       1.0  0.16514  0.92928  0.35073  1.0000
  N   N18       1.0  0.17437  0.85168  0.35047  1.0000
  C   C88       1.0  0.86645  0.75626  0.34934  1.0000
  N   N19       1.0  0.85498  0.72881  0.34912  1.0000
  C   C89       1.0  0.87010  0.71632  0.34984  1.0000
  N   N20       1.0  0.89757  0.73228  0.35044  1.0000
  C   C90       1.0  0.91001  0.75989  0.35047  1.0000
  N   N21       1.0  0.89405  0.77140  0.34999  1.0000
  N   N22       1.0  0.85008  0.76680  0.34829  1.0000
  N   N23       1.0  0.93693  0.77618  0.35089  1.0000
  N   N24       1.0  0.85935  0.68935  0.34982  1.0000
  C   C91       1.0  0.26016  0.10691  0.34989  1.0000
  N   N25       1.0  0.28760  0.12290  0.34997  1.0000
  C   C92       1.0  0.30010  0.15051  0.35027  1.0000
  N   N26       1.0  0.28413  0.16201  0.35036  1.0000
  C   C93       1.0  0.25652  0.14685  0.35020  1.0000
  N   N27       1.0  0.24501  0.11937  0.34999  1.0000
  N   N28       1.0  0.24963  0.08000  0.34955  1.0000
  N   N29       1.0  0.24023  0.15747  0.35021  1.0000
  N   N30       1.0  0.32706  0.16672  0.35030  1.0000
  C   C94       1.0  0.90948  0.14994  0.35011  1.0000
  N   N31       1.0  0.89349  0.16141  0.34999  1.0000
  C   C95       1.0  0.86587  0.14629  0.35041  1.0000
  N   N32       1.0  0.85437  0.11882  0.35079  1.0000
  C   C96       1.0  0.86954  0.10638  0.35080  1.0000
  N   N33       1.0  0.89702  0.12234  0.35055  1.0000
  N   N34       1.0  0.93639  0.16633  0.34958  1.0000
  N   N35       1.0  0.85891  0.07946  0.35122  1.0000
  N   N36       1.0  0.84967  0.15704  0.35036  1.0000
  N   N37       1.0  0.28118  0.51132  0.35935  1.0000
  C   C97       1.0  0.25338  0.49689  0.35732  1.0000
  N   N38       1.0  0.23956  0.51072  0.35800  1.0000
  C   C98       1.0  0.25297  0.53823  0.36112  1.0000
  N   N39       1.0  0.28022  0.55149  0.36356  1.0000
  N   N40       1.0  0.32272  0.55432  0.36404  1.0000
  N   N41       1.0  0.24202  0.55438  0.36070  1.0000
  N   N42       1.0  0.23865  0.46986  0.35523  1.0000
  N   N43       1.0  0.50508  0.76656  0.35937  1.0000
  C   C99       1.0  0.51951  0.75320  0.35746  1.0000
  N   N44       1.0  0.50568  0.72554  0.35822  1.0000
  C   C100      1.0  0.47818  0.71145  0.36127  1.0000
  N   N45       1.0  0.46492  0.72542  0.36359  1.0000
  N   N46       1.0  0.46207  0.76509  0.36395  1.0000
  N   N47       1.0  0.46204  0.68434  0.36085  1.0000
  N   N48       1.0  0.54655  0.76551  0.35542  1.0000
  N   N49       1.0  0.24983  0.73522  0.35937  1.0000
  C   C101      1.0  0.26320  0.76302  0.35737  1.0000
  N   N50       1.0  0.29085  0.77684  0.35807  1.0000
  C   C102      1.0  0.30494  0.76343  0.36117  1.0000
  N   N51       1.0  0.29096  0.73619  0.36357  1.0000
  N   N52       1.0  0.25129  0.69368  0.36402  1.0000
  N   N53       1.0  0.33204  0.77438  0.36071  1.0000
  N   N54       1.0  0.25090  0.77776  0.35527  1.0000
  N   N55       1.0  0.74288  0.49742  0.35922  1.0000
  C   C103      1.0  0.77069  0.51185  0.35723  1.0000
  N   N56       1.0  0.78451  0.49802  0.35795  1.0000
  C   C104      1.0  0.77109  0.47052  0.36106  1.0000
  N   N57       1.0  0.74385  0.45726  0.36345  1.0000
  N   N58       1.0  0.70135  0.45441  0.36386  1.0000
  N   N59       1.0  0.78204  0.45436  0.36062  1.0000
  N   N60       1.0  0.78542  0.53889  0.35514  1.0000
  N   N61       1.0  0.51898  0.24217  0.35928  1.0000
  C   C105      1.0  0.50455  0.25554  0.35725  1.0000
  N   N62       1.0  0.51839  0.28319  0.35790  1.0000
  C   C106      1.0  0.54589  0.29728  0.36097  1.0000
  N   N63       1.0  0.55915  0.28330  0.36342  1.0000
  N   N64       1.0  0.56199  0.24364  0.36397  1.0000
  N   N65       1.0  0.56204  0.32438  0.36054  1.0000
  N   N66       1.0  0.47752  0.24323  0.35518  1.0000
  N   N67       1.0  0.77423  0.27352  0.35937  1.0000
  C   C107      1.0  0.76087  0.24571  0.35746  1.0000
  N   N68       1.0  0.73321  0.23189  0.35820  1.0000
  C   C108      1.0  0.71911  0.24530  0.36121  1.0000
  N   N69       1.0  0.73309  0.27254  0.36355  1.0000
  N   N70       1.0  0.77275  0.31505  0.36393  1.0000
  N   N71       1.0  0.69201  0.23434  0.36081  1.0000
  N   N72       1.0  0.77317  0.23099  0.35543  1.0000
  C   C109      1.0  0.19825  0.36589  0.34756  1.0000
  C   C110      1.0  0.20343  0.38051  0.43015  1.0000
  C   C111      1.0  0.21731  0.40923  0.43050  1.0000
  O   O37       1.0  0.22314  0.42231  0.51203  1.0000
  H   H55       1.0  0.20861  0.42646  0.52332  1.0000
  O   O38       1.0  0.19565  0.36707  0.51101  1.0000
  H   H56       1.0  0.21132  0.36603  0.53386  1.0000
  C   C112      1.0  0.18974  0.33831  0.34826  1.0000
  H   H57       1.0  0.20416  0.33338  0.34570  1.0000
  C   C113      1.0  0.65049  0.82909  0.34702  1.0000
  C   C114      1.0  0.63586  0.81936  0.42945  1.0000
  C   C115      1.0  0.60713  0.80451  0.42969  1.0000
  O   O39       1.0  0.59402  0.79697  0.51110  1.0000
  H   H58       1.0  0.59001  0.77831  0.52178  1.0000
  O   O40       1.0  0.64928  0.82473  0.51027  1.0000
  H   H59       1.0  0.65032  0.84136  0.53394  1.0000
  C   C116      1.0  0.67807  0.84815  0.34785  1.0000
  H   H60       1.0  0.68302  0.86750  0.34510  1.0000
  C   C117      1.0  0.18729  0.81812  0.34700  1.0000
  C   C118      1.0  0.19698  0.81322  0.42953  1.0000
  C   C119      1.0  0.21183  0.79934  0.42995  1.0000
  O   O41       1.0  0.21932  0.79377  0.51145  1.0000
  H   H61       1.0  0.23799  0.80839  0.52217  1.0000
  O   O42       1.0  0.19153  0.82124  0.51028  1.0000
  H   H62       1.0  0.17489  0.80564  0.53380  1.0000
  C   C120      1.0  0.16823  0.82664  0.34759  1.0000
  H   H63       1.0  0.14890  0.81225  0.34422  1.0000
  C   C121      1.0  0.82579  0.64286  0.34700  1.0000
  C   C122      1.0  0.82073  0.62826  0.42957  1.0000
  C   C123      1.0  0.80686  0.59953  0.42998  1.0000
  O   O43       1.0  0.80114  0.58646  0.51150  1.0000
  H   H64       1.0  0.81575  0.58240  0.52261  1.0000
  O   O44       1.0  0.82861  0.64171  0.51039  1.0000
  H   H65       1.0  0.81297  0.64274  0.53354  1.0000
  C   C124      1.0  0.83430  0.67043  0.34769  1.0000
  H   H66       1.0  0.81989  0.67537  0.34512  1.0000
  C   C125      1.0  0.37355  0.17966  0.34761  1.0000
  C   C126      1.0  0.38818  0.18907  0.43019  1.0000
  C   C127      1.0  0.41690  0.20392  0.43053  1.0000
  O   O45       1.0  0.42998  0.21114  0.51205  1.0000
  H   H67       1.0  0.43413  0.22983  0.52342  1.0000
  O   O46       1.0  0.37475  0.18340  0.51107  1.0000
  H   H68       1.0  0.37371  0.16669  0.53385  1.0000
  C   C128      1.0  0.34598  0.16059  0.34831  1.0000
  H   H69       1.0  0.34104  0.14125  0.34584  1.0000
  C   C129      1.0  0.83675  0.19062  0.34709  1.0000
  C   C130      1.0  0.82702  0.19552  0.42951  1.0000
  C   C131      1.0  0.81218  0.20940  0.42976  1.0000
  O   O47       1.0  0.80464  0.21498  0.51116  1.0000
  H   H70       1.0  0.78597  0.20032  0.52184  1.0000
  O   O48       1.0  0.83240  0.18748  0.51033  1.0000
  H   H71       1.0  0.84903  0.20306  0.53399  1.0000
  C   C132      1.0  0.85581  0.18209  0.34790  1.0000
  H   H72       1.0  0.87515  0.19649  0.34499  1.0000
  C   C133      1.0  0.18867  0.20995  0.34993  1.0000
  C   C134      1.0  0.19807  0.20472  0.43251  1.0000
  C   C135      1.0  0.21661  0.19499  0.43229  1.0000
  O   O49       1.0  0.18993  0.20969  0.51380  1.0000
  O   O50       1.0  0.22591  0.19138  0.51343  1.0000
  H   H73       1.0  0.17394  0.19260  0.53229  1.0000
  H   H74       1.0  0.21376  0.17238  0.53062  1.0000
  C   C136      1.0  0.16861  0.21714  0.35018  1.0000
  H   H75       1.0  0.14947  0.20222  0.35039  1.0000
  C   C137      1.0  0.80643  0.97542  0.35096  1.0000
  C   C138      1.0  0.81218  0.99031  0.43314  1.0000
  C   C139      1.0  0.82192  0.01858  0.43224  1.0000
  O   O51       1.0  0.80766  0.97744  0.51477  1.0000
  O   O52       1.0  0.82599  0.03174  0.51308  1.0000
  H   H76       1.0  0.82485  0.97861  0.53224  1.0000
  H   H77       1.0  0.84505  0.03853  0.52929  1.0000
  C   C140      1.0  0.79924  0.94817  0.35185  1.0000
  H   H78       1.0  0.81414  0.94394  0.35456  1.0000
  C   C141      1.0  0.04096  0.82775  0.35046  1.0000
  C   C142      1.0  0.02615  0.81855  0.43277  1.0000
  C   C143      1.0  0.99788  0.80001  0.43206  1.0000
  O   O53       1.0  0.03909  0.82685  0.51430  1.0000
  O   O54       1.0  0.98479  0.79087  0.51300  1.0000
  H   H79       1.0  0.03793  0.84286  0.53201  1.0000
  H   H80       1.0  0.97798  0.80311  0.52945  1.0000
  C   C144      1.0  0.06822  0.84781  0.35112  1.0000
  H   H81       1.0  0.07245  0.86694  0.35317  1.0000
  C   C145      1.0  0.83539  0.79881  0.35175  1.0000
  C   C146      1.0  0.82668  0.80537  0.43331  1.0000
  C   C147      1.0  0.80814  0.81509  0.43147  1.0000
  O   O55       1.0  0.83539  0.80156  0.51536  1.0000
  O   O56       1.0  0.79941  0.81989  0.51186  1.0000
  H   H82       1.0  0.85147  0.81892  0.53116  1.0000
  H   H83       1.0  0.81188  0.83903  0.52649  1.0000
  C   C148      1.0  0.85542  0.79157  0.35353  1.0000
  H   H84       1.0  0.87448  0.80638  0.36027  1.0000
  C   C149      1.0  0.21761  0.03331  0.35024  1.0000
  C   C150      1.0  0.21208  0.01855  0.43265  1.0000
  C   C151      1.0  0.20236  0.99028  0.43211  1.0000
  O   O57       1.0  0.21681  0.03154  0.51410  1.0000
  O   O58       1.0  0.19848  0.97724  0.51313  1.0000
  H   H85       1.0  0.19965  0.03040  0.53199  1.0000
  H   H86       1.0  0.17945  0.97042  0.52974  1.0000
  C   C152      1.0  0.22480  0.06056  0.35078  1.0000
  H   H87       1.0  0.20989  0.06479  0.35245  1.0000
  C   C153      1.0  0.98308  0.18101  0.35061  1.0000
  C   C154      1.0  0.99794  0.19016  0.43284  1.0000
  C   C155      1.0  0.02621  0.20869  0.43202  1.0000
  O   O59       1.0  0.98505  0.18183  0.51443  1.0000
  O   O60       1.0  0.03935  0.21780  0.51290  1.0000
  H   H88       1.0  0.98622  0.16581  0.53198  1.0000
  H   H89       1.0  0.04615  0.20554  0.52918  1.0000
  C   C156      1.0  0.95583  0.16095  0.35143  1.0000
  H   H90       1.0  0.95160  0.14182  0.35397  1.0000
  C   C157      1.0  0.25413  0.65101  0.36769  1.0000
  C   C158      1.0  0.27241  0.64094  0.37501  1.0000
  C   C159      1.0  0.26331  0.61290  0.37170  1.0000
  O   O61       1.0  0.29954  0.65791  0.38795  1.0000
  O   O62       1.0  0.28249  0.60550  0.38132  1.0000
  H   H91       1.0  0.30773  0.66273  0.32704  1.0000
  H   H92       1.0  0.29025  0.60688  0.32047  1.0000
  C   C160      1.0  0.26464  0.67942  0.37015  1.0000
  H   H93       1.0  0.28515  0.69088  0.37708  1.0000
  C   C161      1.0  0.36540  0.59983  0.36773  1.0000
  C   C162      1.0  0.37547  0.62818  0.37497  1.0000
  C   C163      1.0  0.40351  0.64711  0.37170  1.0000
  O   O63       1.0  0.35850  0.63835  0.38775  1.0000
  O   O64       1.0  0.41091  0.67370  0.38121  1.0000
  H   H94       1.0  0.35369  0.64170  0.32680  1.0000
  H   H95       1.0  0.40954  0.68007  0.32032  1.0000
  C   C164      1.0  0.33698  0.58193  0.37015  1.0000
  H   H96       1.0  0.32553  0.59098  0.37700  1.0000
  C   C165      1.0  0.41656  0.76225  0.36758  1.0000
  C   C166      1.0  0.38821  0.74398  0.37481  1.0000
  C   C167      1.0  0.36928  0.75308  0.37151  1.0000
  O   O65       1.0  0.37804  0.71683  0.38761  1.0000
  O   O66       1.0  0.34269  0.73390  0.38106  1.0000
  H   H97       1.0  0.37469  0.70867  0.32667  1.0000
  H   H98       1.0  0.33631  0.72616  0.32018  1.0000
  C   C168      1.0  0.43446  0.75174  0.37002  1.0000
  H   H99       1.0  0.42541  0.73123  0.37688  1.0000
  C   C169      1.0  0.76992  0.35773  0.36756  1.0000
  C   C170      1.0  0.75164  0.36780  0.37479  1.0000
  C   C171      1.0  0.76074  0.39583  0.37147  1.0000
  O   O67       1.0  0.72450  0.35082  0.38758  1.0000
  O   O68       1.0  0.74156  0.40324  0.38102  1.0000
  H   H100      1.0  0.71634  0.34601  0.32663  1.0000
  H   H101      1.0  0.73382  0.40187  0.32014  1.0000
  C   C172      1.0  0.75941  0.32931  0.37000  1.0000
  H   H102      1.0  0.73890  0.31785  0.37686  1.0000
  C   C173      1.0  0.65867  0.40890  0.36750  1.0000
  C   C174      1.0  0.64860  0.38055  0.37474  1.0000
  C   C175      1.0  0.62057  0.36162  0.37145  1.0000
  O   O69       1.0  0.66557  0.37039  0.38758  1.0000
  O   O70       1.0  0.61316  0.33503  0.38097  1.0000
  H   H103      1.0  0.67040  0.36704  0.32665  1.0000
  H   H104      1.0  0.61453  0.32867  0.32008  1.0000
  C   C176      1.0  0.68708  0.42681  0.36997  1.0000
  H   H105      1.0  0.69854  0.41776  0.37685  1.0000
  C   C177      1.0  0.60750  0.24647  0.36765  1.0000
  C   C178      1.0  0.63585  0.26475  0.37483  1.0000
  C   C179      1.0  0.65478  0.25564  0.37160  1.0000
  O   O71       1.0  0.64602  0.29189  0.38754  1.0000
  O   O72       1.0  0.68137  0.27483  0.38104  1.0000
  H   H106      1.0  0.64936  0.30003  0.32656  1.0000
  H   H107      1.0  0.68773  0.28254  0.32012  1.0000
  C   C180      1.0  0.58959  0.25698  0.37005  1.0000
  H   H108      1.0  0.59865  0.27749  0.37684  1.0000
