data_image0
_chemical_formula_structural       CNCHCHCHNC5H2CNC3OHNCHCONC3OHC2NC2OHC2NC2OHNCHNCHNCHNCHC6H3C6H3C6H3C6H3C6H3N2CHNCHC2HC2NC2OHC3NC2OHC2NC2OHC2NC2OH
_chemical_formula_sum              "C81 N18 H36 O9"
_cell_length_a       30.2473
_cell_length_b       30.2473
_cell_length_c       14.701
_cell_angle_alpha    90
_cell_angle_beta     90
_cell_angle_gamma    120

_space_group_name_H-M_alt    "P 1"
_space_group_IT_number       1

loop_
  _space_group_symop_operation_xyz
  'x, y, z'

loop_
  _atom_site_type_symbol
  _atom_site_label
  _atom_site_symmetry_multiplicity
  _atom_site_fract_x
  _atom_site_fract_y
  _atom_site_fract_z
  _atom_site_occupancy
  C   C1        1.0  0.06919  0.53246  0.31903  1.0000
  N   N1        1.0  0.04367  0.55137  0.27154  1.0000
  C   C2        1.0  0.12390  0.56030  0.32526  1.0000
  H   H1        1.0  0.13085  0.63387  0.32988  1.0000
  C   C3        1.0  0.03814  0.48614  0.36541  1.0000
  H   H2        1.0  0.05347  0.46965  0.40563  1.0000
  C   C4        1.0  0.25296  0.52136  0.29185  1.0000
  H   H3        1.0  0.23639  0.51587  0.22913  1.0000
  N   N2        1.0  0.24641  0.72584  0.29756  1.0000
  C   C5        1.0  0.20500  0.56110  0.35372  1.0000
  C   C6        1.0  0.22861  0.61425  0.36828  1.0000
  C   C7        1.0  0.20278  0.64200  0.35759  1.0000
  C   C8        1.0  0.15057  0.61452  0.33310  1.0000
  C   C9        1.0  0.15258  0.53469  0.33077  1.0000
  H   H4        1.0  0.13456  0.49584  0.32378  1.0000
  H   H5        1.0  0.26708  0.63411  0.38185  1.0000
  C   C10       1.0  0.23540  0.53811  0.36602  1.0000
  N   N3        1.0  0.26518  0.55211  0.44162  1.0000
  C   C11       1.0  0.23098  0.69545  0.37306  1.0000
  C   C12       1.0  0.26237  0.71524  0.45181  1.0000
  C   C13       1.0  0.25307  0.68853  0.53306  1.0000
  O   O1        1.0  0.28002  0.70940  0.59922  1.0000
  H   H6        1.0  0.21682  0.66379  0.54717  1.0000
  N   N4        1.0  0.30031  0.52630  0.29735  1.0000
  C   C14       1.0  0.28888  0.77320  0.29327  1.0000
  H   H7        1.0  0.29993  0.79084  0.23139  1.0000
  C   C15       1.0  0.30914  0.55100  0.45232  1.0000
  O   O2        1.0  0.31405  0.57336  0.60065  1.0000
  N   N5        1.0  0.30751  0.75923  0.44190  1.0000
  C   C16       1.0  0.96075  0.48305  0.31339  1.0000
  C   C17       1.0  0.99177  0.52943  0.26501  1.0000
  C   C18       1.0  0.97222  0.55223  0.20879  1.0000
  O   O3        1.0  0.00081  0.59445  0.17673  1.0000
  H   H8        1.0  0.94331  0.52933  0.16889  1.0000
  C   C19       1.0  0.54253  0.48307  0.31329  1.0000
  C   C20       1.0  0.49303  0.54204  0.31900  1.0000
  N   N6        1.0  0.47411  0.49757  0.27162  1.0000
  C   C21       1.0  0.49609  0.46765  0.26508  1.0000
  C   C22       1.0  0.47320  0.42527  0.20891  1.0000
  O   O4        1.0  0.43058  0.41093  0.17819  1.0000
  H   H9        1.0  0.49647  0.42009  0.16841  1.0000
  C   C23       1.0  0.54248  0.06456  0.31318  1.0000
  C   C24       1.0  0.48368  0.95610  0.31923  1.0000
  N   N7        1.0  0.52813  0.98165  0.27182  1.0000
  C   C25       1.0  0.55797  0.03355  0.26515  1.0000
  C   C26       1.0  0.60022  0.05291  0.20888  1.0000
  O   O5        1.0  0.61484  0.02498  0.17757  1.0000
  H   H10       1.0  0.60664  0.08217  0.16942  1.0000
  N   N8        1.0  0.50028  0.77951  0.29984  1.0000
  C   C27       1.0  0.50499  0.73694  0.29501  1.0000
  H   H11       1.0  0.51163  0.72609  0.23298  1.0000
  N   N9        1.0  0.73382  0.49629  0.30410  1.0000
  C   C28       1.0  0.78090  0.50049  0.29933  1.0000
  H   H12       1.0  0.79812  0.50657  0.23715  1.0000
  N   N10       1.0  0.52941  0.24315  0.30322  1.0000
  C   C29       1.0  0.52547  0.28619  0.29876  1.0000
  H   H13       1.0  0.51934  0.29731  0.23657  1.0000
  N   N11       1.0  0.78252  0.29174  0.30316  1.0000
  C   C30       1.0  0.73948  0.24481  0.29834  1.0000
  H   H14       1.0  0.72857  0.22721  0.23639  1.0000
  C   C31       1.0  0.46410  0.64880  0.35651  1.0000
  C   C32       1.0  0.41100  0.61902  0.37148  1.0000
  C   C33       1.0  0.38331  0.56556  0.35921  1.0000
  C   C34       1.0  0.41084  0.54109  0.33337  1.0000
  C   C35       1.0  0.46506  0.56878  0.32571  1.0000
  C   C36       1.0  0.49053  0.62304  0.33190  1.0000
  H   H15       1.0  0.39157  0.50204  0.32958  1.0000
  H   H16       1.0  0.52936  0.64400  0.32456  1.0000
  H   H17       1.0  0.39103  0.63742  0.38581  1.0000
  C   C37       1.0  0.37678  0.82042  0.35580  1.0000
  C   C38       1.0  0.40650  0.79709  0.37136  1.0000
  C   C39       1.0  0.46005  0.82289  0.36022  1.0000
  C   C40       1.0  0.48462  0.87489  0.33434  1.0000
  C   C41       1.0  0.45694  0.90141  0.32597  1.0000
  C   C42       1.0  0.40265  0.87263  0.33142  1.0000
  H   H18       1.0  0.52368  0.89470  0.33114  1.0000
  H   H19       1.0  0.38174  0.89052  0.32364  1.0000
  H   H20       1.0  0.38800  0.75865  0.38516  1.0000
  C   C43       1.0  0.82630  0.45732  0.35949  1.0000
  C   C44       1.0  0.80229  0.40433  0.37586  1.0000
  C   C45       1.0  0.82691  0.37557  0.36319  1.0000
  C   C46       1.0  0.87834  0.40201  0.33388  1.0000
  C   C47       1.0  0.90581  0.45615  0.32281  1.0000
  C   C48       1.0  0.87805  0.48258  0.33218  1.0000
  H   H21       1.0  0.89699  0.38175  0.32711  1.0000
  H   H22       1.0  0.89664  0.52154  0.32871  1.0000
  H   H23       1.0  0.76404  0.38515  0.39125  1.0000
  C   C49       1.0  0.56842  0.37446  0.35945  1.0000
  C   C50       1.0  0.62135  0.40352  0.37644  1.0000
  C   C51       1.0  0.65006  0.45689  0.36371  1.0000
  C   C52       1.0  0.62360  0.48182  0.33414  1.0000
  C   C53       1.0  0.56949  0.45510  0.32275  1.0000
  C   C54       1.0  0.54314  0.40088  0.33183  1.0000
  H   H24       1.0  0.64383  0.52074  0.32749  1.0000
  H   H25       1.0  0.50419  0.38043  0.32806  1.0000
  H   H26       1.0  0.64055  0.38451  0.39216  1.0000
  C   C55       1.0  0.65101  0.19923  0.35859  1.0000
  C   C56       1.0  0.62193  0.22316  0.37482  1.0000
  C   C57       1.0  0.56854  0.19837  0.36242  1.0000
  C   C58       1.0  0.54360  0.14685  0.33366  1.0000
  C   C59       1.0  0.57039  0.11951  0.32247  1.0000
  C   C60       1.0  0.62460  0.14743  0.33157  1.0000
  H   H27       1.0  0.50467  0.12808  0.32709  1.0000
  H   H28       1.0  0.64506  0.12893  0.32813  1.0000
  H   H29       1.0  0.64092  0.26140  0.39028  1.0000
  N   N12       1.0  0.98658  0.46449  0.36142  1.0000
  N   N13       1.0  0.56107  0.52749  0.36125  1.0000
  C   C61       1.0  0.53939  0.55737  0.36527  1.0000
  H   H30       1.0  0.55588  0.58918  0.40551  1.0000
  N   N14       1.0  0.49809  0.03869  0.36121  1.0000
  C   C62       1.0  0.46824  0.98711  0.36528  1.0000
  H   H31       1.0  0.43650  0.97177  0.40569  1.0000
  C   C63       1.0  0.32979  0.54015  0.37401  1.0000
  C   C64       1.0  0.33500  0.56747  0.53437  1.0000
  H   H32       1.0  0.36036  0.55681  0.54902  1.0000
  C   C65       1.0  0.48531  0.79467  0.37566  1.0000
  C   C66       1.0  0.48692  0.70223  0.36855  1.0000
  N   N15       1.0  0.47220  0.71781  0.44353  1.0000
  C   C67       1.0  0.47354  0.76301  0.45405  1.0000
  C   C68       1.0  0.45633  0.77230  0.53549  1.0000
  O   O6        1.0  0.45216  0.74619  0.60200  1.0000
  H   H33       1.0  0.46687  0.80828  0.54983  1.0000
  C   C69       1.0  0.32331  0.78975  0.36721  1.0000
  C   C70       1.0  0.70348  0.48135  0.37970  1.0000
  C   C71       1.0  0.79659  0.48109  0.37230  1.0000
  N   N16       1.0  0.76631  0.46681  0.44730  1.0000
  C   C72       1.0  0.72303  0.46916  0.45800  1.0000
  C   C73       1.0  0.69657  0.45219  0.53940  1.0000
  O   O7        1.0  0.71650  0.44457  0.60533  1.0000
  H   H34       1.0  0.67189  0.46367  0.55455  1.0000
  C   C74       1.0  0.54404  0.22725  0.37863  1.0000
  C   C75       1.0  0.54480  0.32098  0.37212  1.0000
  N   N17       1.0  0.55877  0.30467  0.44702  1.0000
  C   C76       1.0  0.55622  0.25891  0.45711  1.0000
  C   C77       1.0  0.57281  0.24894  0.53850  1.0000
  O   O8        1.0  0.58039  0.27627  0.60477  1.0000
  H   H35       1.0  0.56111  0.21269  0.55322  1.0000
  C   C78       1.0  0.79779  0.32210  0.37872  1.0000
  C   C79       1.0  0.70449  0.22907  0.37140  1.0000
  N   N18       1.0  0.72038  0.25928  0.44645  1.0000
  C   C80       1.0  0.76601  0.30262  0.45708  1.0000
  C   C81       1.0  0.77572  0.32912  0.53860  1.0000
  O   O9        1.0  0.74910  0.30763  0.60486  1.0000
  H   H36       1.0  0.81187  0.35383  0.55325  1.0000
