data_image0
_chemical_formula_structural       CNC2NC4NC18H14C2NC16H12C3NC2NC5NC4NC18H14CNC16H12C11H11CNCNC4NC16H13C4HNO2C4HNO2C4HNO2C4HNO2C3HNO2C3HNO2C4HNO2C4HNO2C4HNO2C4HNO2C4HNO2C4HNO2C7NC12H12C2NC3NC3NC18H14C12H12C3NC3NC3NC18H14C3NC3NC2NC5NC20H15C8NC14H13C2HNO2C2HNO2C2HNO2C2HNO2C3HNO2C3HNO2C2HNO2C2HNO2C2HNO2C2HNO2C2HNO2C2HNO2
_chemical_formula_sum              "C336 N48 H180 O48"
_cell_length_a       57.0963
_cell_length_b       57.0962
_cell_length_c       14.9764
_cell_angle_alpha    90.0018
_cell_angle_beta     89.9654
_cell_angle_gamma    120

_space_group_name_H-M_alt    "P 1"
_space_group_IT_number       1

loop_
  _space_group_symop_operation_xyz
  'x, y, z'

loop_
  _atom_site_type_symbol
  _atom_site_label
  _atom_site_symmetry_multiplicity
  _atom_site_fract_x
  _atom_site_fract_y
  _atom_site_fract_z
  _atom_site_occupancy
  C   C1        1.0  0.28787  0.53060  0.31645  1.0000
  N   N1        1.0  0.27885  0.48878  0.33353  1.0000
  C   C2        1.0  0.30617  0.50381  0.32720  1.0000
  C   C3        1.0  0.32592  0.49559  0.32985  1.0000
  N   N2        1.0  0.29538  0.44578  0.33578  1.0000
  C   C4        1.0  0.29723  0.42311  0.33769  1.0000
  C   C5        1.0  0.32486  0.43175  0.33608  1.0000
  C   C6        1.0  0.33890  0.45964  0.33411  1.0000
  C   C7        1.0  0.27576  0.39586  0.34141  1.0000
  N   N3        1.0  0.23563  0.40290  0.33953  1.0000
  C   C8        1.0  0.20829  0.38783  0.34515  1.0000
  C   C9        1.0  0.22676  0.36104  0.35327  1.0000
  C   C10       1.0  0.21742  0.46882  0.33497  1.0000
  C   C11       1.0  0.23885  0.49606  0.33159  1.0000
  C   C12       1.0  0.23204  0.51696  0.33156  1.0000
  C   C13       1.0  0.22162  0.52264  0.25416  1.0000
  C   C14       1.0  0.21730  0.54483  0.25216  1.0000
  C   C15       1.0  0.22387  0.56226  0.32664  1.0000
  C   C16       1.0  0.14787  0.35981  0.27021  1.0000
  C   C17       1.0  0.11979  0.34174  0.26959  1.0000
  C   C18       1.0  0.28311  0.37540  0.34247  1.0000
  C   C19       1.0  0.30439  0.33959  0.34066  1.0000
  C   C20       1.0  0.29563  0.34616  0.26089  1.0000
  C   C21       1.0  0.28514  0.36382  0.26163  1.0000
  C   C22       1.0  0.35363  0.51625  0.32833  1.0000
  C   C23       1.0  0.36778  0.52506  0.24671  1.0000
  C   C24       1.0  0.39413  0.54755  0.24450  1.0000
  C   C25       1.0  0.40701  0.56178  0.32357  1.0000
  H   H1        1.0  0.40368  0.55374  0.18407  1.0000
  H   H2        1.0  0.35868  0.51574  0.18806  1.0000
  H   H3        1.0  0.28640  0.54759  0.30817  1.0000
  H   H4        1.0  0.26921  0.46962  0.34433  1.0000
  H   H5        1.0  0.24529  0.42215  0.33047  1.0000
  H   H6        1.0  0.35950  0.47137  0.33237  1.0000
  H   H7        1.0  0.33369  0.41998  0.33675  1.0000
  H   H8        1.0  0.27990  0.36891  0.20238  1.0000
  H   H9        1.0  0.29733  0.33854  0.20089  1.0000
  H   H10       1.0  0.22838  0.34408  0.35960  1.0000
  H   H11       1.0  0.15882  0.36191  0.21358  1.0000
  H   H12       1.0  0.11106  0.33093  0.21269  1.0000
  H   H13       1.0  0.21010  0.54870  0.19472  1.0000
  H   H14       1.0  0.21771  0.51102  0.19803  1.0000
  C   C26       1.0  0.53854  0.75769  0.31480  1.0000
  C   C27       1.0  0.56525  0.80275  0.32708  1.0000
  N   N4        1.0  0.62323  0.85000  0.33636  1.0000
  C   C28       1.0  0.64589  0.87453  0.33876  1.0000
  C   C29       1.0  0.63723  0.89350  0.33819  1.0000
  C   C30       1.0  0.60933  0.87963  0.33632  1.0000
  C   C31       1.0  0.67315  0.88033  0.34177  1.0000
  C   C32       1.0  0.68123  0.82092  0.34478  1.0000
  C   C33       1.0  0.70804  0.86619  0.35147  1.0000
  C   C34       1.0  0.60024  0.74902  0.33579  1.0000
  C   C35       1.0  0.54663  0.69931  0.25474  1.0000
  C   C36       1.0  0.52445  0.67278  0.25265  1.0000
  C   C37       1.0  0.70903  0.78824  0.27007  1.0000
  C   C38       1.0  0.72710  0.77822  0.26944  1.0000
  C   C39       1.0  0.69360  0.90815  0.34260  1.0000
  C   C40       1.0  0.72259  0.94992  0.26065  1.0000
  C   C41       1.0  0.70495  0.92176  0.26155  1.0000
  C   C42       1.0  0.54411  0.84329  0.24758  1.0000
  C   C43       1.0  0.52163  0.84716  0.24533  1.0000
  H   H15       1.0  0.51557  0.85070  0.18496  1.0000
  H   H16       1.0  0.55358  0.84371  0.18903  1.0000
  H   H17       1.0  0.52160  0.73925  0.30556  1.0000
  H   H18       1.0  0.59758  0.88849  0.33523  1.0000
  H   H19       1.0  0.64898  0.91410  0.33940  1.0000
  H   H20       1.0  0.69968  0.91143  0.20229  1.0000
  H   H21       1.0  0.73002  0.95924  0.20051  1.0000
  H   H22       1.0  0.72501  0.88478  0.35742  1.0000
  H   H23       1.0  0.70679  0.79689  0.21322  1.0000
  H   H24       1.0  0.73774  0.78008  0.21230  1.0000
  H   H25       1.0  0.52074  0.66166  0.19543  1.0000
  H   H26       1.0  0.55840  0.70696  0.19887  1.0000
  C   C44       1.0  0.28717  0.75717  0.31475  1.0000
  C   C45       1.0  0.31136  0.78125  0.31477  1.0000
  C   C46       1.0  0.30587  0.80231  0.32734  1.0000
  N   N5        1.0  0.27856  0.79021  0.33339  1.0000
  C   C47       1.0  0.26628  0.76291  0.32663  1.0000
  C   C48       1.0  0.23832  0.74314  0.32999  1.0000
  N   N6        1.0  0.21903  0.77365  0.33566  1.0000
  C   C49       1.0  0.19450  0.77178  0.33799  1.0000
  C   C50       1.0  0.17552  0.74414  0.33743  1.0000
  C   C51       1.0  0.18940  0.73012  0.33558  1.0000
  C   C52       1.0  0.18870  0.79324  0.34093  1.0000
  C   C53       1.0  0.20850  0.82122  0.34272  1.0000
  N   N7        1.0  0.23586  0.83339  0.33884  1.0000
  C   C54       1.0  0.24811  0.86074  0.34377  1.0000
  C   C55       1.0  0.22705  0.86643  0.35132  1.0000
  C   C56       1.0  0.20283  0.84228  0.35028  1.0000
  C   C57       1.0  0.27615  0.88048  0.34299  1.0000
  N   N8        1.0  0.29547  0.84982  0.33695  1.0000
  C   C58       1.0  0.32001  0.85164  0.33530  1.0000
  C   C59       1.0  0.32583  0.83022  0.33156  1.0000
  C   C60       1.0  0.35354  0.83702  0.33170  1.0000
  C   C61       1.0  0.36980  0.84777  0.25470  1.0000
  C   C62       1.0  0.39632  0.85210  0.25278  1.0000
  C   C63       1.0  0.40702  0.84521  0.32692  1.0000
  C   C64       1.0  0.28364  0.90840  0.34580  1.0000
  C   C65       1.0  0.28091  0.92124  0.26908  1.0000
  C   C66       1.0  0.29090  0.94931  0.26850  1.0000
  C   C67       1.0  0.30447  0.96539  0.34374  1.0000
  C   C68       1.0  0.16088  0.78588  0.34185  1.0000
  C   C69       1.0  0.10377  0.76453  0.33990  1.0000
  C   C70       1.0  0.11911  0.77314  0.26006  1.0000
  C   C71       1.0  0.14727  0.78364  0.26088  1.0000
  C   C72       1.0  0.23131  0.71544  0.32851  1.0000
  C   C73       1.0  0.22595  0.70130  0.24690  1.0000
  C   C74       1.0  0.22214  0.67498  0.24467  1.0000
  C   C75       1.0  0.22351  0.66209  0.32373  1.0000
  H   H27       1.0  0.21877  0.66543  0.18426  1.0000
  H   H28       1.0  0.22572  0.71041  0.18826  1.0000
  H   H29       1.0  0.32981  0.78275  0.30575  1.0000
  H   H30       1.0  0.26907  0.79981  0.34573  1.0000
  H   H31       1.0  0.24549  0.82370  0.33186  1.0000
  H   H32       1.0  0.18054  0.70951  0.33449  1.0000
  H   H33       1.0  0.15492  0.73529  0.33856  1.0000
  H   H34       1.0  0.15761  0.78875  0.20159  1.0000
  H   H35       1.0  0.10980  0.77128  0.19997  1.0000
  H   H36       1.0  0.18423  0.84066  0.35596  1.0000
  H   H37       1.0  0.27235  0.91036  0.21215  1.0000
  H   H38       1.0  0.28916  0.95812  0.21125  1.0000
  H   H39       1.0  0.40750  0.85955  0.19566  1.0000
  H   H40       1.0  0.36221  0.85192  0.19879  1.0000
  C   C76       1.0  0.78557  0.54248  0.32800  1.0000
  N   N9        1.0  0.79635  0.60050  0.33659  1.0000
  C   C77       1.0  0.79449  0.62318  0.33869  1.0000
  C   C78       1.0  0.76686  0.61453  0.33769  1.0000
  C   C79       1.0  0.75282  0.58663  0.33578  1.0000
  C   C80       1.0  0.81596  0.65042  0.34193  1.0000
  C   C81       1.0  0.88345  0.65848  0.34490  1.0000
  C   C82       1.0  0.86499  0.68529  0.35218  1.0000
  C   C83       1.0  0.87431  0.57747  0.33562  1.0000
  C   C84       1.0  0.87027  0.52375  0.25489  1.0000
  C   C85       1.0  0.87458  0.50155  0.25284  1.0000
  C   C86       1.0  0.94389  0.68632  0.26992  1.0000
  C   C87       1.0  0.97197  0.70438  0.26916  1.0000
  C   C88       1.0  0.80861  0.67089  0.34282  1.0000
  C   C89       1.0  0.79594  0.69996  0.26101  1.0000
  C   C90       1.0  0.80647  0.68234  0.26187  1.0000
  C   C91       1.0  0.72400  0.52120  0.24785  1.0000
  C   C92       1.0  0.69766  0.49871  0.24568  1.0000
  H   H41       1.0  0.68814  0.49250  0.18524  1.0000
  H   H42       1.0  0.73313  0.53051  0.18919  1.0000
  H   H43       1.0  0.80536  0.49874  0.30803  1.0000
  H   H44       1.0  0.73222  0.57489  0.33459  1.0000
  H   H45       1.0  0.75802  0.62629  0.33870  1.0000
  H   H46       1.0  0.81157  0.67710  0.20259  1.0000
  H   H47       1.0  0.79412  0.70746  0.20092  1.0000
  H   H48       1.0  0.86337  0.70226  0.35825  1.0000
  H   H49       1.0  0.93298  0.68409  0.21315  1.0000
  H   H50       1.0  0.98074  0.71504  0.21202  1.0000
  H   H51       1.0  0.88192  0.49778  0.19554  1.0000
  H   H52       1.0  0.87428  0.53543  0.19886  1.0000
  C   C93       1.0  0.44581  0.17175  0.33847  1.0000
  C   C94       1.0  0.45447  0.15277  0.33711  1.0000
  C   C95       1.0  0.48237  0.16664  0.33528  1.0000
  C   C96       1.0  0.54527  0.34694  0.25548  1.0000
  C   C97       1.0  0.56747  0.37346  0.25346  1.0000
  C   C98       1.0  0.38259  0.25789  0.27069  1.0000
  C   C99       1.0  0.36452  0.26790  0.26996  1.0000
  C   C100      1.0  0.36911  0.09642  0.26059  1.0000
  C   C101      1.0  0.38675  0.12458  0.26159  1.0000
  C   C102      1.0  0.54772  0.20313  0.24769  1.0000
  C   C103      1.0  0.57021  0.19928  0.24541  1.0000
  H   H53       1.0  0.57636  0.19587  0.18498  1.0000
  H   H54       1.0  0.53836  0.20287  0.18909  1.0000
  H   H55       1.0  0.57026  0.30710  0.30887  1.0000
  H   H56       1.0  0.49410  0.15778  0.33369  1.0000
  H   H57       1.0  0.39198  0.13495  0.20238  1.0000
  H   H58       1.0  0.36165  0.08714  0.20046  1.0000
  H   H59       1.0  0.36673  0.16152  0.35907  1.0000
  H   H60       1.0  0.38478  0.24914  0.21399  1.0000
  H   H61       1.0  0.35381  0.26593  0.21293  1.0000
  H   H62       1.0  0.57131  0.38454  0.19606  1.0000
  H   H63       1.0  0.53364  0.33925  0.19939  1.0000
  C   C104      1.0  0.78041  0.26505  0.31478  1.0000
  N   N10       1.0  0.81319  0.25608  0.33379  1.0000
  C   C105      1.0  0.82547  0.28339  0.32703  1.0000
  N   N11       1.0  0.87272  0.27265  0.33626  1.0000
  C   C106      1.0  0.89725  0.27452  0.33863  1.0000
  C   C107      1.0  0.91622  0.30216  0.33805  1.0000
  C   C108      1.0  0.90234  0.31618  0.33620  1.0000
  C   C109      1.0  0.90304  0.25306  0.34161  1.0000
  N   N12       1.0  0.85588  0.21291  0.33946  1.0000
  C   C110      1.0  0.84362  0.18556  0.34445  1.0000
  C   C111      1.0  0.88890  0.20402  0.35113  1.0000
  C   C112      1.0  0.77173  0.19467  0.33580  1.0000
  C   C113      1.0  0.76591  0.21609  0.33196  1.0000
  C   C114      1.0  0.72198  0.19855  0.25504  1.0000
  C   C115      1.0  0.69546  0.19421  0.25307  1.0000
  C   C116      1.0  0.68472  0.20110  0.32715  1.0000
  C   C117      1.0  0.81090  0.12510  0.26966  1.0000
  C   C118      1.0  0.80088  0.09702  0.26900  1.0000
  C   C119      1.0  0.93086  0.26042  0.34254  1.0000
  C   C120      1.0  0.98797  0.28173  0.34050  1.0000
  C   C121      1.0  0.97262  0.27300  0.26076  1.0000
  C   C122      1.0  0.94447  0.26251  0.26161  1.0000
  C   C123      1.0  0.86045  0.33086  0.32907  1.0000
  C   C124      1.0  0.86592  0.34506  0.24751  1.0000
  C   C125      1.0  0.86977  0.37139  0.24529  1.0000
  H   H64       1.0  0.87323  0.38098  0.18491  1.0000
  H   H65       1.0  0.86628  0.33599  0.18891  1.0000
  H   H66       1.0  0.76197  0.26355  0.30558  1.0000
  H   H67       1.0  0.82266  0.24651  0.34675  1.0000
  H   H68       1.0  0.91120  0.33679  0.33508  1.0000
  H   H69       1.0  0.93682  0.31101  0.33917  1.0000
  H   H70       1.0  0.93413  0.25732  0.20238  1.0000
  H   H71       1.0  0.98193  0.27475  0.20070  1.0000
  H   H72       1.0  0.90749  0.20564  0.35708  1.0000
  H   H73       1.0  0.81953  0.13601  0.21278  1.0000
  H   H74       1.0  0.80271  0.08824  0.21180  1.0000
  H   H75       1.0  0.68431  0.18677  0.19592  1.0000
  H   H76       1.0  0.72961  0.19440  0.19915  1.0000
  C   C126      1.0  0.22202  0.63639  0.32083  1.0000
  C   C127      1.0  0.23772  0.63142  0.25910  1.0000
  C   C128      1.0  0.23819  0.60688  0.25920  1.0000
  C   C129      1.0  0.22221  0.58637  0.32214  1.0000
  H   H77       1.0  0.25009  0.64633  0.21545  1.0000
  N   N13       1.0  0.25536  0.60319  0.19944  1.0000
  O   O1        1.0  0.24942  0.60443  0.11942  1.0000
  O   O2        1.0  0.27983  0.62038  0.21184  1.0000
  C   C130      1.0  0.43272  0.58599  0.32069  1.0000
  C   C131      1.0  0.43781  0.60660  0.25856  1.0000
  C   C132      1.0  0.46235  0.63161  0.25868  1.0000
  C   C133      1.0  0.48274  0.63622  0.32212  1.0000
  H   H78       1.0  0.42297  0.60403  0.21457  1.0000
  N   N14       1.0  0.46615  0.65239  0.19842  1.0000
  O   O3        1.0  0.46507  0.64512  0.11858  1.0000
  O   O4        1.0  0.44894  0.65970  0.21005  1.0000
  C   C134      1.0  0.48304  0.84711  0.32128  1.0000
  C   C135      1.0  0.46249  0.83164  0.25895  1.0000
  C   C136      1.0  0.43749  0.83119  0.25890  1.0000
  C   C137      1.0  0.43282  0.84692  0.32244  1.0000
  H   H79       1.0  0.46514  0.81946  0.21476  1.0000
  N   N15       1.0  0.41678  0.81428  0.19837  1.0000
  O   O5        1.0  0.42416  0.82055  0.11863  1.0000
  O   O6        1.0  0.40945  0.78975  0.20976  1.0000
  C   C138      1.0  0.86977  0.40993  0.32137  1.0000
  C   C139      1.0  0.85418  0.41495  0.25941  1.0000
  C   C140      1.0  0.85372  0.43950  0.25945  1.0000
  C   C141      1.0  0.86957  0.45995  0.32266  1.0000
  H   H80       1.0  0.84191  0.40009  0.21551  1.0000
  N   N16       1.0  0.83668  0.44325  0.19936  1.0000
  O   O7        1.0  0.84277  0.44208  0.11946  1.0000
  O   O8        1.0  0.81217  0.42605  0.21134  1.0000
  C   C142      1.0  0.65406  0.43961  0.26021  1.0000
  C   C143      1.0  0.62953  0.41460  0.26035  1.0000
  C   C144      1.0  0.60902  0.41006  0.32334  1.0000
  H   H81       1.0  0.66897  0.44215  0.21653  1.0000
  N   N17       1.0  0.62583  0.39375  0.20055  1.0000
  O   O9        1.0  0.62706  0.40095  0.12054  1.0000
  O   O10       1.0  0.64302  0.38646  0.21288  1.0000
  C   C145      1.0  0.62927  0.21466  0.25909  1.0000
  C   C146      1.0  0.65428  0.21513  0.25910  1.0000
  C   C147      1.0  0.65893  0.19938  0.32264  1.0000
  H   H82       1.0  0.62667  0.22689  0.21501  1.0000
  N   N18       1.0  0.67503  0.23206  0.19862  1.0000
  O   O11       1.0  0.66770  0.22582  0.11886  1.0000
  O   O12       1.0  0.68234  0.25659  0.21003  1.0000
  C   C148      1.0  0.01683  0.29487  0.33857  1.0000
  C   C149      1.0  0.03181  0.31570  0.27644  1.0000
  C   C150      1.0  0.06042  0.33028  0.27659  1.0000
  C   C151      1.0  0.07479  0.32380  0.34026  1.0000
  H   H83       1.0  0.02185  0.32128  0.23201  1.0000
  N   N19       1.0  0.07467  0.35196  0.21593  1.0000
  O   O13       1.0  0.06981  0.34407  0.13622  1.0000
  O   O14       1.0  0.06908  0.37044  0.22707  1.0000
  C   C152      1.0  0.77412  0.72235  0.33892  1.0000
  C   C153      1.0  0.75313  0.71631  0.27733  1.0000
  C   C154      1.0  0.73854  0.73033  0.27751  1.0000
  C   C155      1.0  0.74520  0.75138  0.34057  1.0000
  H   H84       1.0  0.74745  0.70064  0.23336  1.0000
  N   N20       1.0  0.71669  0.72271  0.21750  1.0000
  O   O15       1.0  0.72436  0.72549  0.13754  1.0000
  O   O16       1.0  0.69825  0.69867  0.22960  1.0000
  C   C156      1.0  0.34667  0.05219  0.33831  1.0000
  C   C157      1.0  0.35279  0.03727  0.27683  1.0000
  C   C158      1.0  0.33879  0.00866  0.27698  1.0000
  C   C159      1.0  0.31766  0.99424  0.33980  1.0000
  H   H85       1.0  0.36853  0.04726  0.23308  1.0000
  N   N21       1.0  0.34652  0.99446  0.21716  1.0000
  O   O17       1.0  0.34385  0.99936  0.13714  1.0000
  O   O18       1.0  0.37054  0.00007  0.22960  1.0000
  C   C160      1.0  0.07490  0.75137  0.33805  1.0000
  C   C161      1.0  0.05994  0.73042  0.27634  1.0000
  C   C162      1.0  0.03133  0.71582  0.27666  1.0000
  C   C163      1.0  0.01695  0.72243  0.33994  1.0000
  H   H86       1.0  0.06991  0.72473  0.23228  1.0000
  N   N22       1.0  0.01709  0.69400  0.21654  1.0000
  O   O19       1.0  0.02195  0.70171  0.13663  1.0000
  O   O20       1.0  0.02270  0.67556  0.22836  1.0000
  C   C164      1.0  0.31754  0.32388  0.33883  1.0000
  C   C165      1.0  0.33846  0.32982  0.27694  1.0000
  C   C166      1.0  0.35304  0.31580  0.27720  1.0000
  C   C167      1.0  0.34648  0.29487  0.34069  1.0000
  H   H87       1.0  0.34408  0.34540  0.23264  1.0000
  N   N23       1.0  0.37482  0.32332  0.21686  1.0000
  O   O21       1.0  0.36705  0.32039  0.13703  1.0000
  O   O22       1.0  0.39327  0.34737  0.22839  1.0000
  C   C168      1.0  0.74504  0.99411  0.33853  1.0000
  C   C169      1.0  0.73896  0.00907  0.27709  1.0000
  C   C170      1.0  0.75298  0.03768  0.27727  1.0000
  C   C171      1.0  0.77407  0.05206  0.34018  1.0000
  H   H88       1.0  0.72326  0.99910  0.23325  1.0000
  N   N24       1.0  0.74532  0.05192  0.21742  1.0000
  O   O23       1.0  0.74805  0.04704  0.13741  1.0000
  O   O24       1.0  0.72130  0.04632  0.22975  1.0000
  C   C172      1.0  0.31195  0.53049  0.31644  1.0000
  C   C173      1.0  0.26678  0.50402  0.32800  1.0000
  C   C174      1.0  0.32000  0.46835  0.33347  1.0000
  C   C175      1.0  0.24779  0.38772  0.34411  1.0000
  C   C176      1.0  0.20261  0.36112  0.35424  1.0000
  C   C177      1.0  0.18855  0.39612  0.34353  1.0000
  C   C178      1.0  0.19461  0.42348  0.33928  1.0000
  N   N25       1.0  0.21923  0.44609  0.33737  1.0000
  C   C179      1.0  0.18985  0.46026  0.33576  1.0000
  C   C180      1.0  0.17582  0.43237  0.33679  1.0000
  C   C181      1.0  0.23402  0.55632  0.40429  1.0000
  C   C182      1.0  0.23779  0.53381  0.40710  1.0000
  C   C183      1.0  0.16063  0.37570  0.34645  1.0000
  C   C184      1.0  0.10364  0.33950  0.34436  1.0000
  C   C185      1.0  0.11658  0.35497  0.42127  1.0000
  C   C186      1.0  0.14474  0.37255  0.42280  1.0000
  C   C187      1.0  0.29111  0.36843  0.42273  1.0000
  C   C188      1.0  0.30154  0.35070  0.42175  1.0000
  C   C189      1.0  0.36648  0.52997  0.40776  1.0000
  C   C190      1.0  0.39286  0.55236  0.40535  1.0000
  H   H89       1.0  0.40110  0.56256  0.46359  1.0000
  H   H90       1.0  0.35637  0.52434  0.46742  1.0000
  H   H91       1.0  0.33051  0.54737  0.30837  1.0000
  H   H92       1.0  0.29048  0.37712  0.48183  1.0000
  H   H93       1.0  0.30837  0.34714  0.48051  1.0000
  H   H94       1.0  0.18404  0.34420  0.36155  1.0000
  H   H95       1.0  0.18104  0.47204  0.33402  1.0000
  H   H96       1.0  0.15521  0.42082  0.33650  1.0000
  H   H97       1.0  0.15337  0.38417  0.47837  1.0000
  H   H98       1.0  0.10545  0.35437  0.47577  1.0000
  H   H99       1.0  0.24587  0.53047  0.46342  1.0000
  H   H100      1.0  0.23966  0.56890  0.45854  1.0000
  C   C191      1.0  0.53863  0.78187  0.31495  1.0000
  C   C192      1.0  0.56506  0.76317  0.32766  1.0000
  N   N26       1.0  0.58027  0.79047  0.33383  1.0000
  C   C193      1.0  0.57343  0.83071  0.33060  1.0000
  C   C194      1.0  0.60065  0.85203  0.33476  1.0000
  C   C195      1.0  0.68133  0.86053  0.34372  1.0000
  N   N27       1.0  0.66613  0.83317  0.33972  1.0000
  C   C196      1.0  0.70797  0.84197  0.35262  1.0000
  C   C197      1.0  0.67294  0.79288  0.34386  1.0000
  C   C198      1.0  0.64557  0.77157  0.34016  1.0000
  N   N28       1.0  0.62296  0.77356  0.33763  1.0000
  C   C199      1.0  0.60879  0.73001  0.33753  1.0000
  C   C200      1.0  0.63668  0.74388  0.33872  1.0000
  C   C201      1.0  0.57301  0.74320  0.33190  1.0000
  C   C202      1.0  0.55209  0.71549  0.33185  1.0000
  C   C203      1.0  0.50682  0.66201  0.32674  1.0000
  C   C204      1.0  0.51253  0.67819  0.40408  1.0000
  C   C205      1.0  0.53504  0.70446  0.40704  1.0000
  C   C206      1.0  0.69336  0.78539  0.34668  1.0000
  C   C207      1.0  0.72954  0.76457  0.34458  1.0000
  C   C208      1.0  0.71429  0.76234  0.42187  1.0000
  C   C209      1.0  0.69669  0.77290  0.42334  1.0000
  C   C210      1.0  0.70076  0.92312  0.42287  1.0000
  C   C211      1.0  0.71846  0.95128  0.42172  1.0000
  C   C212      1.0  0.72935  0.96525  0.34046  1.0000
  C   C213      1.0  0.55275  0.83773  0.32912  1.0000
  C   C214      1.0  0.53884  0.83661  0.40841  1.0000
  C   C215      1.0  0.50723  0.84559  0.32427  1.0000
  C   C216      1.0  0.51645  0.84060  0.40597  1.0000
  H   H101      1.0  0.50613  0.83849  0.46410  1.0000
  H   H102      1.0  0.54434  0.83196  0.46799  1.0000
  H   H103      1.0  0.52179  0.78358  0.30598  1.0000
  H   H104      1.0  0.59932  0.79995  0.34677  1.0000
  H   H105      1.0  0.64683  0.82355  0.33235  1.0000
  H   H106      1.0  0.69227  0.91379  0.48217  1.0000
  H   H107      1.0  0.72221  0.96168  0.48056  1.0000
  H   H108      1.0  0.72492  0.84035  0.35932  1.0000
  H   H109      1.0  0.59701  0.70941  0.33655  1.0000
  H   H110      1.0  0.64823  0.73482  0.33904  1.0000
  H   H111      1.0  0.68524  0.77013  0.47922  1.0000
  H   H112      1.0  0.71500  0.75197  0.47661  1.0000
  H   H113      1.0  0.53819  0.71595  0.46307  1.0000
  H   H114      1.0  0.49981  0.67129  0.45803  1.0000
  C   C217      1.0  0.21699  0.74904  0.33409  1.0000
  C   C218      1.0  0.29747  0.87443  0.33948  1.0000
  C   C219      1.0  0.33902  0.87920  0.33712  1.0000
  C   C220      1.0  0.32516  0.89322  0.33823  1.0000
  C   C221      1.0  0.39077  0.83472  0.40415  1.0000
  C   C222      1.0  0.36450  0.83096  0.40694  1.0000
  C   C223      1.0  0.30661  0.95235  0.42108  1.0000
  C   C224      1.0  0.29599  0.92419  0.42261  1.0000
  C   C225      1.0  0.14589  0.77801  0.42213  1.0000
  C   C226      1.0  0.11774  0.76759  0.42109  1.0000
  C   C227      1.0  0.23221  0.70259  0.40792  1.0000
  C   C228      1.0  0.22826  0.67623  0.40549  1.0000
  H   H115      1.0  0.23018  0.66796  0.46375  1.0000
  H   H116      1.0  0.23669  0.71269  0.46757  1.0000
  H   H117      1.0  0.28548  0.73862  0.30612  1.0000
  H   H118      1.0  0.15521  0.77882  0.48138  1.0000
  H   H119      1.0  0.10733  0.76086  0.47992  1.0000
  H   H120      1.0  0.22867  0.88500  0.35783  1.0000
  H   H121      1.0  0.35962  0.88802  0.33642  1.0000
  H   H122      1.0  0.33422  0.91384  0.33867  1.0000
  H   H123      1.0  0.29873  0.91550  0.47848  1.0000
  H   H124      1.0  0.31689  0.96342  0.47593  1.0000
  H   H125      1.0  0.35297  0.82264  0.46293  1.0000
  H   H126      1.0  0.39762  0.82889  0.45816  1.0000
  C   C229      1.0  0.77980  0.51582  0.31688  1.0000
  C   C230      1.0  0.80388  0.51571  0.31673  1.0000
  C   C231      1.0  0.82496  0.54228  0.32854  1.0000
  N   N29       1.0  0.81288  0.55750  0.33441  1.0000
  C   C232      1.0  0.76582  0.55070  0.33096  1.0000
  C   C233      1.0  0.77173  0.57793  0.33472  1.0000
  C   C234      1.0  0.84394  0.65859  0.34400  1.0000
  N   N30       1.0  0.85610  0.64340  0.33974  1.0000
  C   C235      1.0  0.88914  0.68521  0.35316  1.0000
  C   C236      1.0  0.90318  0.65018  0.34372  1.0000
  C   C237      1.0  0.89712  0.62281  0.33982  1.0000
  N   N31       1.0  0.87251  0.60020  0.33768  1.0000
  C   C238      1.0  0.90188  0.58602  0.33677  1.0000
  C   C239      1.0  0.91591  0.61391  0.33788  1.0000
  C   C240      1.0  0.85288  0.55023  0.33220  1.0000
  C   C241      1.0  0.85969  0.52933  0.33216  1.0000
  C   C242      1.0  0.86789  0.48404  0.32718  1.0000
  C   C243      1.0  0.85757  0.48988  0.40469  1.0000
  C   C244      1.0  0.85382  0.51240  0.40757  1.0000
  C   C245      1.0  0.93110  0.67059  0.34647  1.0000
  C   C246      1.0  0.98810  0.70676  0.34410  1.0000
  C   C247      1.0  0.97512  0.69145  0.42131  1.0000
  C   C248      1.0  0.94696  0.67388  0.42296  1.0000
  C   C249      1.0  0.80073  0.67799  0.42309  1.0000
  C   C250      1.0  0.79030  0.69571  0.42202  1.0000
  C   C251      1.0  0.78729  0.70667  0.34082  1.0000
  C   C252      1.0  0.73811  0.53003  0.32948  1.0000
  C   C253      1.0  0.72522  0.51634  0.40895  1.0000
  C   C254      1.0  0.68475  0.48449  0.32478  1.0000
  C   C255      1.0  0.69886  0.49391  0.40655  1.0000
  H   H127      1.0  0.69057  0.48374  0.46485  1.0000
  H   H128      1.0  0.73530  0.52196  0.46862  1.0000
  H   H129      1.0  0.76124  0.49895  0.30855  1.0000
  H   H130      1.0  0.82251  0.57664  0.34562  1.0000
  H   H131      1.0  0.84641  0.62410  0.33203  1.0000
  H   H132      1.0  0.80144  0.66940  0.48231  1.0000
  H   H133      1.0  0.78352  0.69936  0.48081  1.0000
  H   H134      1.0  0.90771  0.70215  0.36000  1.0000
  H   H135      1.0  0.91069  0.57424  0.33570  1.0000
  H   H136      1.0  0.93653  0.62546  0.33799  1.0000
  H   H137      1.0  0.93829  0.66238  0.47876  1.0000
  H   H138      1.0  0.98622  0.69215  0.47596  1.0000
  H   H139      1.0  0.84562  0.51566  0.46379  1.0000
  H   H140      1.0  0.85187  0.47726  0.45886  1.0000
  C   C256      1.0  0.55317  0.26445  0.31717  1.0000
  C   C257      1.0  0.55327  0.28864  0.31726  1.0000
  C   C258      1.0  0.52670  0.28313  0.32905  1.0000
  N   N32       1.0  0.51147  0.25582  0.33466  1.0000
  C   C259      1.0  0.52650  0.24354  0.32815  1.0000
  C   C260      1.0  0.51829  0.21557  0.33086  1.0000
  C   C261      1.0  0.49106  0.19424  0.33448  1.0000
  N   N33       1.0  0.46848  0.19628  0.33657  1.0000
  C   C262      1.0  0.41856  0.16596  0.34189  1.0000
  C   C263      1.0  0.41040  0.18577  0.34448  1.0000
  N   N34       1.0  0.42558  0.21312  0.34028  1.0000
  C   C264      1.0  0.41049  0.22538  0.34568  1.0000
  C   C265      1.0  0.38377  0.20433  0.35419  1.0000
  C   C266      1.0  0.38370  0.18011  0.35312  1.0000
  C   C267      1.0  0.41878  0.25341  0.34435  1.0000
  C   C268      1.0  0.44615  0.27472  0.34042  1.0000
  N   N35       1.0  0.46876  0.27273  0.33842  1.0000
  C   C269      1.0  0.49148  0.29727  0.33629  1.0000
  C   C270      1.0  0.48292  0.31628  0.33737  1.0000
  C   C271      1.0  0.45503  0.30241  0.33829  1.0000
  C   C272      1.0  0.51872  0.30309  0.33283  1.0000
  C   C273      1.0  0.53962  0.33080  0.33283  1.0000
  C   C274      1.0  0.58491  0.38428  0.32787  1.0000
  C   C275      1.0  0.57900  0.36817  0.40548  1.0000
  C   C276      1.0  0.55650  0.34188  0.40829  1.0000
  C   C277      1.0  0.39835  0.26090  0.34713  1.0000
  C   C278      1.0  0.36217  0.28171  0.34484  1.0000
  C   C279      1.0  0.37751  0.28411  0.42195  1.0000
  C   C280      1.0  0.39509  0.27353  0.42358  1.0000
  C   C281      1.0  0.39811  0.13815  0.34263  1.0000
  C   C282      1.0  0.39095  0.12313  0.42284  1.0000
  C   C283      1.0  0.37325  0.09497  0.42161  1.0000
  C   C284      1.0  0.36235  0.08105  0.34034  1.0000
  C   C285      1.0  0.53897  0.20854  0.32931  1.0000
  C   C286      1.0  0.55274  0.20947  0.40866  1.0000
  C   C287      1.0  0.58449  0.20069  0.32441  1.0000
  C   C288      1.0  0.57513  0.20548  0.40619  1.0000
  H   H141      1.0  0.58538  0.20749  0.46437  1.0000
  H   H142      1.0  0.54715  0.21400  0.46831  1.0000
  H   H143      1.0  0.57005  0.26278  0.30895  1.0000
  H   H144      1.0  0.49232  0.24630  0.34574  1.0000
  H   H145      1.0  0.44485  0.22273  0.33178  1.0000
  H   H146      1.0  0.44271  0.13217  0.33783  1.0000
  H   H147      1.0  0.39948  0.13241  0.48212  1.0000
  H   H148      1.0  0.36954  0.08453  0.48038  1.0000
  H   H149      1.0  0.36683  0.20596  0.36121  1.0000
  H   H150      1.0  0.49469  0.33687  0.33584  1.0000
  H   H151      1.0  0.44347  0.31146  0.33813  1.0000
  H   H152      1.0  0.40662  0.27641  0.47930  1.0000
  H   H153      1.0  0.37683  0.29455  0.47655  1.0000
  H   H154      1.0  0.55318  0.33044  0.46457  1.0000
  H   H155      1.0  0.59159  0.37509  0.45967  1.0000
  C   C289      1.0  0.80459  0.28914  0.31492  1.0000
  C   C290      1.0  0.78589  0.24400  0.32766  1.0000
  C   C291      1.0  0.85343  0.30316  0.33054  1.0000
  C   C292      1.0  0.87475  0.29726  0.33468  1.0000
  C   C293      1.0  0.88324  0.22508  0.34345  1.0000
  C   C294      1.0  0.86467  0.17987  0.35222  1.0000
  C   C295      1.0  0.81558  0.16583  0.34358  1.0000
  C   C296      1.0  0.79427  0.17188  0.34001  1.0000
  N   N36       1.0  0.79627  0.19649  0.33749  1.0000
  C   C297      1.0  0.75272  0.16711  0.33761  1.0000
  C   C298      1.0  0.76658  0.15309  0.33870  1.0000
  C   C299      1.0  0.73820  0.20930  0.33204  1.0000
  C   C300      1.0  0.70094  0.21160  0.40438  1.0000
  C   C301      1.0  0.72721  0.21535  0.40723  1.0000
  C   C302      1.0  0.80809  0.13791  0.34635  1.0000
  C   C303      1.0  0.78727  0.08091  0.34420  1.0000
  C   C304      1.0  0.78508  0.09392  0.42156  1.0000
  C   C305      1.0  0.79564  0.12208  0.42305  1.0000
  C   C306      1.0  0.94584  0.26838  0.42276  1.0000
  C   C307      1.0  0.97400  0.27883  0.42166  1.0000
  C   C308      1.0  0.85941  0.34366  0.40843  1.0000
  C   C309      1.0  0.86827  0.38422  0.32430  1.0000
  C   C310      1.0  0.86339  0.37003  0.40603  1.0000
  H   H156      1.0  0.86134  0.37825  0.46422  1.0000
  H   H157      1.0  0.85482  0.33352  0.46804  1.0000
  H   H158      1.0  0.80630  0.30768  0.30597  1.0000
  H   H159      1.0  0.84626  0.22260  0.33216  1.0000
  H   H160      1.0  0.93652  0.26766  0.48197  1.0000
  H   H161      1.0  0.98440  0.28559  0.48044  1.0000
  H   H162      1.0  0.86305  0.16130  0.35889  1.0000
  H   H163      1.0  0.73212  0.15829  0.33676  1.0000
  H   H164      1.0  0.75752  0.13247  0.33906  1.0000
  H   H165      1.0  0.79290  0.13075  0.47898  1.0000
  H   H166      1.0  0.77474  0.08283  0.47635  1.0000
  H   H167      1.0  0.73872  0.22371  0.46318  1.0000
  H   H168      1.0  0.69407  0.21745  0.45832  1.0000
  C   C311      1.0  0.20593  0.59088  0.38385  1.0000
  C   C312      1.0  0.20611  0.61576  0.38242  1.0000
  H   H169      1.0  0.19433  0.61874  0.42737  1.0000
  N   N37       1.0  0.18951  0.57039  0.44578  1.0000
  O   O25       1.0  0.16487  0.56258  0.43467  1.0000
  O   O26       1.0  0.19580  0.57833  0.52503  1.0000
  C   C313      1.0  0.47814  0.61550  0.38421  1.0000
  C   C314      1.0  0.45327  0.59079  0.38268  1.0000
  H   H170      1.0  0.45023  0.57608  0.42791  1.0000
  N   N38       1.0  0.49852  0.61965  0.44665  1.0000
  O   O27       1.0  0.50637  0.60282  0.43622  1.0000
  O   O28       1.0  0.49043  0.61809  0.52570  1.0000
  C   C315      1.0  0.45346  0.86296  0.38481  1.0000
  C   C316      1.0  0.47817  0.86278  0.38343  1.0000
  H   H171      1.0  0.49283  0.87440  0.42884  1.0000
  N   N39       1.0  0.44926  0.87913  0.44737  1.0000
  O   O29       1.0  0.46611  0.90382  0.43722  1.0000
  O   O30       1.0  0.45073  0.87253  0.52636  1.0000
  C   C317      1.0  0.88574  0.45539  0.38462  1.0000
  C   C318      1.0  0.88556  0.43051  0.38320  1.0000
  H   H172      1.0  0.89727  0.42749  0.42833  1.0000
  N   N40       1.0  0.90205  0.47582  0.44681  1.0000
  O   O31       1.0  0.92671  0.48365  0.43606  1.0000
  O   O32       1.0  0.89561  0.46781  0.52595  1.0000
  C   C319      1.0  0.65905  0.46028  0.32194  1.0000
  C   C320      1.0  0.61353  0.43083  0.38505  1.0000
  C   C321      1.0  0.63841  0.45553  0.38357  1.0000
  H   H173      1.0  0.64139  0.47029  0.42852  1.0000
  N   N41       1.0  0.59305  0.42675  0.44705  1.0000
  O   O33       1.0  0.58524  0.44358  0.43598  1.0000
  O   O34       1.0  0.60101  0.42838  0.52627  1.0000
  C   C322      1.0  0.60870  0.19918  0.32143  1.0000
  C   C323      1.0  0.63825  0.18332  0.38494  1.0000
  C   C324      1.0  0.61354  0.18348  0.38352  1.0000
  H   H174      1.0  0.59885  0.17184  0.42890  1.0000
  N   N42       1.0  0.64243  0.16712  0.44749  1.0000
  O   O35       1.0  0.62559  0.14244  0.43730  1.0000
  O   O36       1.0  0.64091  0.17370  0.52649  1.0000
  C   C325      1.0  0.06003  0.30266  0.40270  1.0000
  C   C326      1.0  0.03139  0.28860  0.40107  1.0000
  H   H175      1.0  0.02107  0.27340  0.44638  1.0000
  N   N43       1.0  0.07409  0.29564  0.46537  1.0000
  O   O37       1.0  0.06878  0.27162  0.45529  1.0000
  O   O38       1.0  0.06854  0.29862  0.54431  1.0000
  C   C327      1.0  0.76649  0.75794  0.40242  1.0000
  C   C328      1.0  0.78055  0.74335  0.40085  1.0000
  H   H176      1.0  0.79585  0.74835  0.44574  1.0000
  N   N44       1.0  0.77369  0.77922  0.46446  1.0000
  O   O39       1.0  0.79768  0.79788  0.45343  1.0000
  O   O40       1.0  0.77092  0.77093  0.54364  1.0000
  C   C329      1.0  0.31100  0.00895  0.40152  1.0000
  C   C330      1.0  0.32559  0.03759  0.40005  1.0000
  H   H177      1.0  0.32053  0.04789  0.44486  1.0000
  N   N45       1.0  0.28964  0.99484  0.46332  1.0000
  O   O41       1.0  0.27099  0.00016  0.45203  1.0000
  O   O42       1.0  0.29783  0.00034  0.54260  1.0000
  C   C331      1.0  0.03169  0.74370  0.40188  1.0000
  C   C332      1.0  0.06034  0.75776  0.40019  1.0000
  H   H178      1.0  0.07065  0.77305  0.44516  1.0000
  N   N46       1.0  0.01762  0.75085  0.46415  1.0000
  O   O43       1.0  0.02294  0.77485  0.45338  1.0000
  O   O44       1.0  0.02317  0.74804  0.54325  1.0000
  C   C333      1.0  0.32525  0.28841  0.40286  1.0000
  C   C334      1.0  0.31119  0.30299  0.40118  1.0000
  H   H179      1.0  0.29594  0.29807  0.44630  1.0000
  N   N47       1.0  0.31814  0.26724  0.46531  1.0000
  O   O45       1.0  0.29414  0.24855  0.45482  1.0000
  O   O46       1.0  0.32101  0.27567  0.54433  1.0000
  C   C335      1.0  0.78068  0.03732  0.40188  1.0000
  C   C336      1.0  0.76609  0.00867  0.40031  1.0000
  H   H180      1.0  0.77111  0.99836  0.44510  1.0000
  N   N48       1.0  0.80200  0.05139  0.46376  1.0000
  O   O47       1.0  0.82065  0.04607  0.45251  1.0000
  O   O48       1.0  0.79375  0.04586  0.54300  1.0000
