data_image0
_chemical_formula_structural       C4NC4NH4N2C3HNO2CHC3HNO2CHC2HC2H3N2C3HNO2CHC3HNO2CHC4NC4NH4N2C3HNO2CHC3HNO2CHC2HC2H3N2C3HNO2CHC3HNO2CHC4NC4NH4N2C3HNO2CHC3HNO2CHC2HC2H3N2C3HNO2CHC3HNO2CHC4NC4NH4N2C3HNO2CHC3HNO2CHC2HC2H3N2C3HNO2CHC3HNO2CH
_chemical_formula_sum              "C112 N40 H64 O32"
_cell_length_a       31.5528
_cell_length_b       31.5528
_cell_length_c       14.9686
_cell_angle_alpha    90
_cell_angle_beta     90
_cell_angle_gamma    90

_space_group_name_H-M_alt    "P 1"
_space_group_IT_number       1

loop_
  _space_group_symop_operation_xyz
  'x, y, z'

loop_
  _atom_site_type_symbol
  _atom_site_label
  _atom_site_symmetry_multiplicity
  _atom_site_fract_x
  _atom_site_fract_y
  _atom_site_fract_z
  _atom_site_occupancy
  C   C1        1.0  0.01675  0.48538  0.33628  1.0000
  C   C2        1.0  0.08168  0.42033  0.32145  1.0000
  C   C3        1.0  0.09307  0.46358  0.32951  1.0000
  C   C4        1.0  0.06105  0.49483  0.33546  1.0000
  N   N1        1.0  0.11145  0.39044  0.30062  1.0000
  C   C5        1.0  0.48430  0.01784  0.33553  1.0000
  C   C6        1.0  0.44004  0.00843  0.33356  1.0000
  C   C7        1.0  0.40805  0.03963  0.32551  1.0000
  C   C8        1.0  0.41920  0.08300  0.31829  1.0000
  N   N2        1.0  0.38877  0.11346  0.30682  1.0000
  H   H1        1.0  0.35902  0.10648  0.29968  1.0000
  H   H2        1.0  0.13970  0.39868  0.28236  1.0000
  H   H3        1.0  0.07143  0.02521  0.33920  1.0000
  H   H4        1.0  0.42972  0.47801  0.33622  1.0000
  N   N3        1.0  0.36616  0.03010  0.32720  1.0000
  N   N4        1.0  0.13508  0.47274  0.33241  1.0000
  C   C9        1.0  0.99814  0.29672  0.34027  1.0000
  C   C10       1.0  0.96203  0.27154  0.31856  1.0000
  C   C11       1.0  0.96497  0.22675  0.31919  1.0000
  H   H5        1.0  0.93874  0.20966  0.30160  1.0000
  N   N5        1.0  0.92328  0.29097  0.29308  1.0000
  O   O1        1.0  0.89346  0.28117  0.34477  1.0000
  O   O2        1.0  0.91295  0.28165  0.21437  1.0000
  C   C12       1.0  0.99492  0.34163  0.33660  1.0000
  H   H6        1.0  0.96616  0.35577  0.32706  1.0000
  C   C13       1.0  0.20546  0.00384  0.33761  1.0000
  C   C14       1.0  0.23062  0.03997  0.31602  1.0000
  C   C15       1.0  0.27542  0.03707  0.31670  1.0000
  H   H7        1.0  0.29249  0.06333  0.29931  1.0000
  N   N6        1.0  0.21117  0.07873  0.29071  1.0000
  O   O3        1.0  0.22050  0.08915  0.21206  1.0000
  O   O4        1.0  0.22094  0.10851  0.34254  1.0000
  C   C16       1.0  0.16055  0.00705  0.33405  1.0000
  H   H8        1.0  0.14639  0.03581  0.32459  1.0000
  C   C17       1.0  0.00728  0.44109  0.33674  1.0000
  C   C18       1.0  0.03847  0.40902  0.33061  1.0000
  H   H9        1.0  0.47693  0.43075  0.34212  1.0000
  C   C19       1.0  0.46254  0.09412  0.32656  1.0000
  C   C20       1.0  0.49370  0.06211  0.33480  1.0000
  H   H10       1.0  0.02408  0.07243  0.33902  1.0000
  H   H11       1.0  0.39576  0.14324  0.30044  1.0000
  H   H12       1.0  0.10318  0.36208  0.28326  1.0000
  N   N7        1.0  0.47206  0.13600  0.32888  1.0000
  N   N8        1.0  0.02927  0.36703  0.33421  1.0000
  C   C21       1.0  0.00291  0.20540  0.34109  1.0000
  C   C22       1.0  0.03806  0.23046  0.36474  1.0000
  C   C23       1.0  0.03629  0.27534  0.36538  1.0000
  H   H13       1.0  0.06564  0.21589  0.38383  1.0000
  N   N9        1.0  0.07200  0.29799  0.39758  1.0000
  O   O5        1.0  0.10545  0.28853  0.35641  1.0000
  O   O6        1.0  0.07786  0.29127  0.47942  1.0000
  C   C24       1.0  0.00638  0.16076  0.34139  1.0000
  H   H14       1.0  0.03472  0.14673  0.35646  1.0000
  C   C25       1.0  0.29678  0.99913  0.33850  1.0000
  C   C26       1.0  0.27174  0.96393  0.36194  1.0000
  C   C27       1.0  0.22686  0.96567  0.36257  1.0000
  H   H15       1.0  0.28633  0.93635  0.38097  1.0000
  N   N10       1.0  0.20425  0.92990  0.39461  1.0000
  O   O7        1.0  0.21098  0.92397  0.47644  1.0000
  O   O8        1.0  0.21374  0.89651  0.35328  1.0000
  C   C28       1.0  0.34143  0.99570  0.33905  1.0000
  H   H16       1.0  0.35545  0.96735  0.35399  1.0000
  C   C29       1.0  0.01675  0.98538  0.33628  1.0000
  C   C30       1.0  0.08168  0.92033  0.32145  1.0000
  C   C31       1.0  0.09307  0.96358  0.32951  1.0000
  C   C32       1.0  0.06105  0.99483  0.33546  1.0000
  N   N11       1.0  0.11145  0.89044  0.30062  1.0000
  C   C33       1.0  0.48430  0.51784  0.33553  1.0000
  C   C34       1.0  0.44004  0.50843  0.33356  1.0000
  C   C35       1.0  0.40805  0.53963  0.32551  1.0000
  C   C36       1.0  0.41920  0.58300  0.31829  1.0000
  N   N12       1.0  0.38877  0.61346  0.30682  1.0000
  H   H17       1.0  0.35902  0.60647  0.29968  1.0000
  H   H18       1.0  0.13970  0.89868  0.28236  1.0000
  H   H19       1.0  0.07143  0.52521  0.33920  1.0000
  H   H20       1.0  0.42972  0.97801  0.33622  1.0000
  N   N13       1.0  0.36616  0.53010  0.32720  1.0000
  N   N14       1.0  0.13508  0.97274  0.33241  1.0000
  C   C37       1.0  0.99814  0.79672  0.34027  1.0000
  C   C38       1.0  0.96203  0.77154  0.31856  1.0000
  C   C39       1.0  0.96497  0.72675  0.31919  1.0000
  H   H21       1.0  0.93874  0.70966  0.30160  1.0000
  N   N15       1.0  0.92328  0.79098  0.29308  1.0000
  O   O9        1.0  0.89346  0.78117  0.34477  1.0000
  O   O10       1.0  0.91295  0.78165  0.21437  1.0000
  C   C40       1.0  0.99492  0.84163  0.33660  1.0000
  H   H22       1.0  0.96616  0.85577  0.32706  1.0000
  C   C41       1.0  0.20546  0.50384  0.33761  1.0000
  C   C42       1.0  0.23062  0.53997  0.31602  1.0000
  C   C43       1.0  0.27542  0.53707  0.31670  1.0000
  H   H23       1.0  0.29249  0.56333  0.29931  1.0000
  N   N16       1.0  0.21117  0.57873  0.29071  1.0000
  O   O11       1.0  0.22050  0.58915  0.21206  1.0000
  O   O12       1.0  0.22094  0.60851  0.34254  1.0000
  C   C44       1.0  0.16055  0.50705  0.33405  1.0000
  H   H24       1.0  0.14639  0.53581  0.32459  1.0000
  C   C45       1.0  0.00728  0.94109  0.33674  1.0000
  C   C46       1.0  0.03847  0.90902  0.33061  1.0000
  H   H25       1.0  0.47693  0.93075  0.34212  1.0000
  C   C47       1.0  0.46254  0.59412  0.32656  1.0000
  C   C48       1.0  0.49370  0.56210  0.33480  1.0000
  H   H26       1.0  0.02408  0.57243  0.33902  1.0000
  H   H27       1.0  0.39576  0.64324  0.30044  1.0000
  H   H28       1.0  0.10318  0.86208  0.28326  1.0000
  N   N17       1.0  0.47206  0.63601  0.32888  1.0000
  N   N18       1.0  0.02927  0.86703  0.33421  1.0000
  C   C49       1.0  0.00291  0.70540  0.34109  1.0000
  C   C50       1.0  0.03806  0.73046  0.36474  1.0000
  C   C51       1.0  0.03629  0.77534  0.36538  1.0000
  H   H29       1.0  0.06564  0.71589  0.38383  1.0000
  N   N19       1.0  0.07200  0.79799  0.39758  1.0000
  O   O13       1.0  0.10545  0.78853  0.35641  1.0000
  O   O14       1.0  0.07786  0.79127  0.47942  1.0000
  C   C52       1.0  0.00638  0.66076  0.34139  1.0000
  H   H30       1.0  0.03472  0.64673  0.35646  1.0000
  C   C53       1.0  0.29678  0.49913  0.33850  1.0000
  C   C54       1.0  0.27174  0.46393  0.36194  1.0000
  C   C55       1.0  0.22686  0.46567  0.36257  1.0000
  H   H31       1.0  0.28633  0.43635  0.38097  1.0000
  N   N20       1.0  0.20425  0.42990  0.39461  1.0000
  O   O15       1.0  0.21098  0.42396  0.47644  1.0000
  O   O16       1.0  0.21374  0.39651  0.35328  1.0000
  C   C56       1.0  0.34143  0.49571  0.33905  1.0000
  H   H32       1.0  0.35545  0.46735  0.35399  1.0000
  C   C57       1.0  0.51675  0.48538  0.33628  1.0000
  C   C58       1.0  0.58168  0.42033  0.32145  1.0000
  C   C59       1.0  0.59307  0.46358  0.32951  1.0000
  C   C60       1.0  0.56105  0.49483  0.33546  1.0000
  N   N21       1.0  0.61145  0.39044  0.30062  1.0000
  C   C61       1.0  0.98430  0.01784  0.33553  1.0000
  C   C62       1.0  0.94004  0.00843  0.33356  1.0000
  C   C63       1.0  0.90805  0.03963  0.32551  1.0000
  C   C64       1.0  0.91920  0.08300  0.31829  1.0000
  N   N22       1.0  0.88877  0.11346  0.30682  1.0000
  H   H33       1.0  0.85902  0.10648  0.29968  1.0000
  H   H34       1.0  0.63970  0.39868  0.28236  1.0000
  H   H35       1.0  0.57143  0.02521  0.33920  1.0000
  H   H36       1.0  0.92972  0.47801  0.33622  1.0000
  N   N23       1.0  0.86616  0.03010  0.32720  1.0000
  N   N24       1.0  0.63507  0.47274  0.33241  1.0000
  C   C65       1.0  0.49814  0.29672  0.34027  1.0000
  C   C66       1.0  0.46203  0.27154  0.31856  1.0000
  C   C67       1.0  0.46497  0.22675  0.31919  1.0000
  H   H37       1.0  0.43874  0.20966  0.30160  1.0000
  N   N25       1.0  0.42328  0.29097  0.29308  1.0000
  O   O17       1.0  0.39346  0.28117  0.34477  1.0000
  O   O18       1.0  0.41296  0.28165  0.21437  1.0000
  C   C68       1.0  0.49492  0.34163  0.33660  1.0000
  H   H38       1.0  0.46616  0.35577  0.32706  1.0000
  C   C69       1.0  0.70546  0.00384  0.33761  1.0000
  C   C70       1.0  0.73062  0.03997  0.31602  1.0000
  C   C71       1.0  0.77542  0.03707  0.31670  1.0000
  H   H39       1.0  0.79249  0.06333  0.29931  1.0000
  N   N26       1.0  0.71117  0.07873  0.29071  1.0000
  O   O19       1.0  0.72050  0.08915  0.21206  1.0000
  O   O20       1.0  0.72094  0.10851  0.34254  1.0000
  C   C72       1.0  0.66055  0.00705  0.33405  1.0000
  H   H40       1.0  0.64639  0.03581  0.32459  1.0000
  C   C73       1.0  0.50728  0.44109  0.33674  1.0000
  C   C74       1.0  0.53847  0.40902  0.33061  1.0000
  H   H41       1.0  0.97693  0.43075  0.34212  1.0000
  C   C75       1.0  0.96254  0.09412  0.32656  1.0000
  C   C76       1.0  0.99370  0.06211  0.33480  1.0000
  H   H42       1.0  0.52408  0.07243  0.33902  1.0000
  H   H43       1.0  0.89577  0.14324  0.30044  1.0000
  H   H44       1.0  0.60318  0.36208  0.28326  1.0000
  N   N27       1.0  0.97206  0.13600  0.32888  1.0000
  N   N28       1.0  0.52927  0.36703  0.33421  1.0000
  C   C77       1.0  0.50291  0.20540  0.34109  1.0000
  C   C78       1.0  0.53806  0.23046  0.36474  1.0000
  C   C79       1.0  0.53629  0.27534  0.36538  1.0000
  H   H45       1.0  0.56564  0.21589  0.38383  1.0000
  N   N29       1.0  0.57200  0.29799  0.39758  1.0000
  O   O21       1.0  0.60545  0.28853  0.35641  1.0000
  O   O22       1.0  0.57786  0.29127  0.47942  1.0000
  C   C80       1.0  0.50638  0.16076  0.34139  1.0000
  H   H46       1.0  0.53472  0.14673  0.35646  1.0000
  C   C81       1.0  0.79678  0.99913  0.33850  1.0000
  C   C82       1.0  0.77174  0.96393  0.36194  1.0000
  C   C83       1.0  0.72686  0.96567  0.36257  1.0000
  H   H47       1.0  0.78633  0.93635  0.38097  1.0000
  N   N30       1.0  0.70425  0.92990  0.39461  1.0000
  O   O23       1.0  0.71098  0.92397  0.47644  1.0000
  O   O24       1.0  0.71374  0.89651  0.35328  1.0000
  C   C84       1.0  0.84143  0.99570  0.33905  1.0000
  H   H48       1.0  0.85545  0.96735  0.35399  1.0000
  C   C85       1.0  0.51675  0.98538  0.33628  1.0000
  C   C86       1.0  0.58168  0.92033  0.32145  1.0000
  C   C87       1.0  0.59307  0.96358  0.32951  1.0000
  C   C88       1.0  0.56105  0.99483  0.33546  1.0000
  N   N31       1.0  0.61145  0.89044  0.30062  1.0000
  C   C89       1.0  0.98430  0.51784  0.33553  1.0000
  C   C90       1.0  0.94004  0.50843  0.33356  1.0000
  C   C91       1.0  0.90805  0.53963  0.32551  1.0000
  C   C92       1.0  0.91920  0.58300  0.31829  1.0000
  N   N32       1.0  0.88877  0.61346  0.30682  1.0000
  H   H49       1.0  0.85902  0.60647  0.29968  1.0000
  H   H50       1.0  0.63970  0.89868  0.28236  1.0000
  H   H51       1.0  0.57143  0.52521  0.33920  1.0000
  H   H52       1.0  0.92972  0.97801  0.33622  1.0000
  N   N33       1.0  0.86616  0.53010  0.32720  1.0000
  N   N34       1.0  0.63507  0.97274  0.33241  1.0000
  C   C93       1.0  0.49814  0.79672  0.34027  1.0000
  C   C94       1.0  0.46203  0.77154  0.31856  1.0000
  C   C95       1.0  0.46497  0.72675  0.31919  1.0000
  H   H53       1.0  0.43874  0.70966  0.30160  1.0000
  N   N35       1.0  0.42328  0.79098  0.29308  1.0000
  O   O25       1.0  0.39346  0.78117  0.34477  1.0000
  O   O26       1.0  0.41296  0.78165  0.21437  1.0000
  C   C96       1.0  0.49492  0.84163  0.33660  1.0000
  H   H54       1.0  0.46616  0.85577  0.32706  1.0000
  C   C97       1.0  0.70546  0.50384  0.33761  1.0000
  C   C98       1.0  0.73062  0.53997  0.31602  1.0000
  C   C99       1.0  0.77542  0.53707  0.31670  1.0000
  H   H55       1.0  0.79249  0.56333  0.29931  1.0000
  N   N36       1.0  0.71117  0.57873  0.29071  1.0000
  O   O27       1.0  0.72050  0.58915  0.21206  1.0000
  O   O28       1.0  0.72094  0.60851  0.34254  1.0000
  C   C100      1.0  0.66055  0.50705  0.33405  1.0000
  H   H56       1.0  0.64639  0.53581  0.32459  1.0000
  C   C101      1.0  0.50728  0.94109  0.33674  1.0000
  C   C102      1.0  0.53847  0.90902  0.33061  1.0000
  H   H57       1.0  0.97693  0.93075  0.34212  1.0000
  C   C103      1.0  0.96254  0.59412  0.32656  1.0000
  C   C104      1.0  0.99370  0.56210  0.33480  1.0000
  H   H58       1.0  0.52408  0.57243  0.33902  1.0000
  H   H59       1.0  0.89577  0.64324  0.30044  1.0000
  H   H60       1.0  0.60318  0.86208  0.28326  1.0000
  N   N37       1.0  0.97206  0.63601  0.32888  1.0000
  N   N38       1.0  0.52927  0.86703  0.33421  1.0000
  C   C105      1.0  0.50291  0.70540  0.34109  1.0000
  C   C106      1.0  0.53806  0.73046  0.36474  1.0000
  C   C107      1.0  0.53629  0.77534  0.36538  1.0000
  H   H61       1.0  0.56564  0.71589  0.38383  1.0000
  N   N39       1.0  0.57200  0.79799  0.39758  1.0000
  O   O29       1.0  0.60545  0.78853  0.35641  1.0000
  O   O30       1.0  0.57786  0.79127  0.47942  1.0000
  C   C108      1.0  0.50638  0.66076  0.34139  1.0000
  H   H62       1.0  0.53472  0.64673  0.35646  1.0000
  C   C109      1.0  0.79678  0.49913  0.33850  1.0000
  C   C110      1.0  0.77174  0.46393  0.36194  1.0000
  C   C111      1.0  0.72686  0.46567  0.36257  1.0000
  H   H63       1.0  0.78633  0.43635  0.38097  1.0000
  N   N40       1.0  0.70425  0.42990  0.39461  1.0000
  O   O31       1.0  0.71098  0.42396  0.47644  1.0000
  O   O32       1.0  0.71374  0.39651  0.35328  1.0000
  C   C112      1.0  0.84143  0.49571  0.33905  1.0000
  H   H64       1.0  0.85545  0.46735  0.35399  1.0000
