data_image0
_chemical_formula_structural       CNC4H2CH3CNC4H2CH3CNC4H2CH3C4HCNHCH3C4HCNHCH3C4HCNHCH3C24H15C24H15C24H15C24H15C4HCNHCH3C4HCNHCH3C4HCNHCH3CNC4H2CH3CNC4H2CH3CNC4H2CH3
_chemical_formula_sum              "C168 N12 H120"
_cell_length_a       57.5431
_cell_length_b       57.5431
_cell_length_c       14.9416
_cell_angle_alpha    90
_cell_angle_beta     90
_cell_angle_gamma    120

_space_group_name_H-M_alt    "P 1"
_space_group_IT_number       1

loop_
  _space_group_symop_operation_xyz
  'x, y, z'

loop_
  _atom_site_type_symbol
  _atom_site_label
  _atom_site_symmetry_multiplicity
  _atom_site_fract_x
  _atom_site_fract_y
  _atom_site_fract_z
  _atom_site_occupancy
  C   C1        1.0  0.26920  0.14428  0.27377  1.0000
  N   N1        1.0  0.24206  0.13013  0.27620  1.0000
  C   C2        1.0  0.19785  0.10155  0.33447  1.0000
  C   C3        1.0  0.18368  0.09287  0.25120  1.0000
  C   C4        1.0  0.15517  0.07901  0.25258  1.0000
  C   C5        1.0  0.14034  0.07336  0.33294  1.0000
  H   H1        1.0  0.14482  0.07217  0.19371  1.0000
  H   H2        1.0  0.27816  0.15355  0.21515  1.0000
  C   C6        1.0  0.19714  0.09680  0.16280  1.0000
  H   H3        1.0  0.21082  0.08884  0.16483  1.0000
  H   H4        1.0  0.20831  0.11811  0.14638  1.0000
  H   H5        1.0  0.18304  0.08667  0.10807  1.0000
  C   C7        1.0  0.85096  0.12591  0.27379  1.0000
  N   N2        1.0  0.86511  0.11293  0.27622  1.0000
  C   C8        1.0  0.89368  0.09728  0.33448  1.0000
  C   C9        1.0  0.90235  0.09178  0.25120  1.0000
  C   C10       1.0  0.91622  0.07713  0.25258  1.0000
  C   C11       1.0  0.92187  0.06796  0.33294  1.0000
  H   H6        1.0  0.92304  0.07360  0.19370  1.0000
  H   H7        1.0  0.84170  0.12561  0.21515  1.0000
  C   C12       1.0  0.89840  0.10130  0.16279  1.0000
  H   H8        1.0  0.90636  0.12293  0.16477  1.0000
  H   H9        1.0  0.87709  0.09114  0.14642  1.0000
  H   H10       1.0  0.90851  0.09730  0.10805  1.0000
  C   C13       1.0  0.86928  0.72603  0.27373  1.0000
  N   N3        1.0  0.88227  0.75316  0.27618  1.0000
  C   C14       1.0  0.89794  0.79738  0.33447  1.0000
  C   C15       1.0  0.90346  0.81156  0.25119  1.0000
  C   C16       1.0  0.91811  0.84007  0.25259  1.0000
  C   C17       1.0  0.92726  0.85489  0.33296  1.0000
  H   H11       1.0  0.92166  0.85042  0.19371  1.0000
  H   H12       1.0  0.86957  0.71708  0.21507  1.0000
  C   C18       1.0  0.89397  0.79810  0.16276  1.0000
  H   H13       1.0  0.87234  0.78443  0.16466  1.0000
  H   H14       1.0  0.90413  0.78693  0.14646  1.0000
  H   H15       1.0  0.89799  0.81221  0.10801  1.0000
  C   C19       1.0  0.51484  0.15932  0.33736  1.0000
  C   C20       1.0  0.56086  0.15324  0.33905  1.0000
  C   C21       1.0  0.54087  0.13987  0.27194  1.0000
  C   C22       1.0  0.51814  0.14334  0.27243  1.0000
  H   H16       1.0  0.50377  0.13428  0.22396  1.0000
  C   C23       1.0  0.62466  0.16270  0.25500  1.0000
  N   N4        1.0  0.59959  0.15884  0.26375  1.0000
  H   H17       1.0  0.63263  0.16582  0.19211  1.0000
  C   C24       1.0  0.54279  0.12226  0.20292  1.0000
  H   H18       1.0  0.54715  0.10780  0.23477  1.0000
  H   H19       1.0  0.55869  0.13432  0.15535  1.0000
  H   H20       1.0  0.52420  0.11095  0.16495  1.0000
  C   C25       1.0  0.83591  0.35650  0.33735  1.0000
  C   C26       1.0  0.84199  0.40860  0.33903  1.0000
  C   C27       1.0  0.85536  0.40198  0.27193  1.0000
  C   C28       1.0  0.85190  0.37578  0.27242  1.0000
  H   H21       1.0  0.86096  0.37048  0.22396  1.0000
  C   C29       1.0  0.83256  0.46296  0.25498  1.0000
  N   N5        1.0  0.83640  0.44173  0.26374  1.0000
  H   H22       1.0  0.82944  0.46781  0.19209  1.0000
  C   C30       1.0  0.87298  0.42150  0.20292  1.0000
  H   H23       1.0  0.88744  0.44033  0.23477  1.0000
  H   H24       1.0  0.86093  0.42535  0.15534  1.0000
  H   H25       1.0  0.88429  0.41424  0.16495  1.0000
  C   C31       1.0  0.63873  0.48038  0.33743  1.0000
  C   C32       1.0  0.58663  0.43437  0.33911  1.0000
  C   C33       1.0  0.59326  0.45436  0.27198  1.0000
  C   C34       1.0  0.61945  0.47708  0.27247  1.0000
  H   H26       1.0  0.62477  0.49145  0.22398  1.0000
  C   C35       1.0  0.53229  0.37057  0.25505  1.0000
  N   N6        1.0  0.55351  0.39565  0.26381  1.0000
  H   H27       1.0  0.52745  0.36260  0.19216  1.0000
  C   C36       1.0  0.57374  0.45244  0.20292  1.0000
  H   H28       1.0  0.55491  0.44808  0.23475  1.0000
  H   H29       1.0  0.56990  0.43654  0.15538  1.0000
  H   H30       1.0  0.58101  0.47103  0.16494  1.0000
  C   C37       1.0  0.98153  0.01247  0.33443  1.0000
  C   C38       1.0  0.00995  0.02686  0.33442  1.0000
  C   C39       1.0  0.02519  0.01371  0.33444  1.0000
  C   C40       1.0  0.01116  0.98529  0.33445  1.0000
  C   C41       1.0  0.98277  0.97005  0.33445  1.0000
  C   C42       1.0  0.96838  0.98407  0.33443  1.0000
  C   C43       1.0  0.05394  0.02871  0.33438  1.0000
  C   C44       1.0  0.06824  0.05037  0.27450  1.0000
  C   C45       1.0  0.09651  0.06492  0.27377  1.0000
  C   C46       1.0  0.11162  0.05868  0.33384  1.0000
  C   C47       1.0  0.09733  0.03718  0.39424  1.0000
  C   C48       1.0  0.06907  0.02236  0.39405  1.0000
  C   C49       1.0  0.96653  0.02622  0.33436  1.0000
  C   C50       1.0  0.97288  0.04770  0.39401  1.0000
  C   C51       1.0  0.95807  0.06115  0.39422  1.0000
  C   C52       1.0  0.93656  0.05393  0.33384  1.0000
  C   C53       1.0  0.93031  0.03256  0.27379  1.0000
  C   C54       1.0  0.94487  0.01885  0.27452  1.0000
  C   C55       1.0  0.96902  0.94130  0.33440  1.0000
  C   C56       1.0  0.94753  0.92617  0.39404  1.0000
  C   C57       1.0  0.93408  0.89791  0.39422  1.0000
  C   C58       1.0  0.94130  0.88361  0.33387  1.0000
  C   C59       1.0  0.96267  0.89873  0.27384  1.0000
  C   C60       1.0  0.97640  0.92700  0.27460  1.0000
  H   H31       1.0  0.96354  0.07672  0.43801  1.0000
  H   H32       1.0  0.98819  0.05353  0.43916  1.0000
  H   H33       1.0  0.91476  0.02649  0.22952  1.0000
  H   H34       1.0  0.93977  0.00366  0.22941  1.0000
  H   H35       1.0  0.94169  0.93564  0.43914  1.0000
  H   H36       1.0  0.91850  0.88781  0.43799  1.0000
  H   H37       1.0  0.99158  0.93708  0.22947  1.0000
  H   H38       1.0  0.96875  0.88925  0.22960  1.0000
  H   H39       1.0  0.05960  0.00707  0.43922  1.0000
  H   H40       1.0  0.10743  0.03172  0.43807  1.0000
  H   H41       1.0  0.10598  0.08047  0.22949  1.0000
  H   H42       1.0  0.05815  0.05546  0.22939  1.0000
  H   H43       1.0  0.01978  0.04740  0.33438  1.0000
  H   H44       1.0  0.94784  0.97336  0.33440  1.0000
  H   H45       1.0  0.02188  0.97546  0.33443  1.0000
  C   C61       1.0  0.44444  0.24234  0.32821  1.0000
  C   C62       1.0  0.41611  0.22887  0.33565  1.0000
  C   C63       1.0  0.40025  0.20041  0.33915  1.0000
  C   C64       1.0  0.41387  0.18554  0.33660  1.0000
  C   C65       1.0  0.44207  0.19834  0.33029  1.0000
  C   C66       1.0  0.45696  0.22657  0.32684  1.0000
  C   C67       1.0  0.37140  0.18700  0.34328  1.0000
  C   C68       1.0  0.35662  0.19658  0.29536  1.0000
  C   C69       1.0  0.32837  0.18313  0.29803  1.0000
  C   C70       1.0  0.31332  0.15920  0.34797  1.0000
  C   C71       1.0  0.32814  0.14964  0.39581  1.0000
  C   C72       1.0  0.35639  0.16326  0.39404  1.0000
  C   C73       1.0  0.46061  0.27096  0.32276  1.0000
  C   C74       1.0  0.45693  0.28813  0.38153  1.0000
  C   C75       1.0  0.47516  0.31600  0.38258  1.0000
  C   C76       1.0  0.49778  0.32786  0.32495  1.0000
  C   C77       1.0  0.50066  0.31067  0.26375  1.0000
  C   C78       1.0  0.48241  0.28295  0.26215  1.0000
  C   C79       1.0  0.45605  0.18387  0.32760  1.0000
  C   C80       1.0  0.47090  0.18513  0.25058  1.0000
  C   C81       1.0  0.48916  0.17564  0.25279  1.0000
  C   C82       1.0  0.49353  0.16513  0.33258  1.0000
  C   C83       1.0  0.47817  0.16334  0.40902  1.0000
  C   C84       1.0  0.45954  0.17243  0.40650  1.0000
  H   H46       1.0  0.47197  0.32751  0.42758  1.0000
  H   H47       1.0  0.44173  0.28033  0.42758  1.0000
  H   H48       1.0  0.51693  0.31785  0.22217  1.0000
  H   H49       1.0  0.48581  0.27142  0.21775  1.0000
  H   H50       1.0  0.46954  0.19425  0.19353  1.0000
  H   H51       1.0  0.50058  0.17820  0.19713  1.0000
  H   H52       1.0  0.44993  0.17231  0.46433  1.0000
  H   H53       1.0  0.48116  0.15629  0.46828  1.0000
  H   H54       1.0  0.36591  0.15554  0.43108  1.0000
  H   H55       1.0  0.31851  0.13216  0.43150  1.0000
  H   H56       1.0  0.31891  0.19130  0.26311  1.0000
  H   H57       1.0  0.36628  0.21332  0.25606  1.0000
  H   H58       1.0  0.40689  0.24013  0.33790  1.0000
  H   H59       1.0  0.47749  0.23582  0.32479  1.0000
  H   H60       1.0  0.40318  0.16500  0.33642  1.0000
  C   C85       1.0  0.75289  0.20307  0.32823  1.0000
  C   C86       1.0  0.76636  0.18821  0.33569  1.0000
  C   C87       1.0  0.79482  0.20081  0.33918  1.0000
  C   C88       1.0  0.80969  0.22931  0.33661  1.0000
  C   C89       1.0  0.79689  0.24471  0.33030  1.0000
  C   C90       1.0  0.76866  0.23137  0.32684  1.0000
  C   C91       1.0  0.80823  0.18538  0.34332  1.0000
  C   C92       1.0  0.79864  0.16102  0.29542  1.0000
  C   C93       1.0  0.81210  0.14622  0.29806  1.0000
  C   C94       1.0  0.83603  0.15509  0.34801  1.0000
  C   C95       1.0  0.84558  0.17947  0.39589  1.0000
  C   C96       1.0  0.83197  0.19411  0.39410  1.0000
  C   C97       1.0  0.72427  0.19063  0.32280  1.0000
  C   C98       1.0  0.70710  0.16978  0.38155  1.0000
  C   C99       1.0  0.67924  0.16014  0.38258  1.0000
  C   C100      1.0  0.66736  0.17087  0.32488  1.0000
  C   C101      1.0  0.68456  0.19096  0.26372  1.0000
  C   C102      1.0  0.71228  0.20042  0.26212  1.0000
  C   C103      1.0  0.81137  0.27317  0.32761  1.0000
  C   C104      1.0  0.81011  0.28674  0.25058  1.0000
  C   C105      1.0  0.81964  0.31451  0.25273  1.0000
  C   C106      1.0  0.83010  0.32937  0.33258  1.0000
  C   C107      1.0  0.83188  0.31581  0.40904  1.0000
  C   C108      1.0  0.82278  0.28809  0.40653  1.0000
  H   H61       1.0  0.66772  0.14543  0.42753  1.0000
  H   H62       1.0  0.71490  0.16238  0.42761  1.0000
  H   H63       1.0  0.67738  0.20005  0.22214  1.0000
  H   H64       1.0  0.72381  0.21537  0.21779  1.0000
  H   H65       1.0  0.80098  0.27627  0.19355  1.0000
  H   H66       1.0  0.81702  0.32336  0.19715  1.0000
  H   H67       1.0  0.82294  0.27860  0.46431  1.0000
  H   H68       1.0  0.83894  0.32585  0.46828  1.0000
  H   H69       1.0  0.83968  0.21134  0.43113  1.0000
  H   H70       1.0  0.86306  0.18732  0.43156  1.0000
  H   H71       1.0  0.80394  0.12859  0.26310  1.0000
  H   H72       1.0  0.78191  0.15395  0.25606  1.0000
  H   H73       1.0  0.75509  0.16773  0.33793  1.0000
  H   H74       1.0  0.75941  0.24265  0.32480  1.0000
  H   H75       1.0  0.83023  0.23915  0.33644  1.0000
  C   C109      1.0  0.79218  0.55080  0.32818  1.0000
  C   C110      1.0  0.80703  0.57913  0.33565  1.0000
  C   C111      1.0  0.79442  0.59498  0.33917  1.0000
  C   C112      1.0  0.76593  0.58136  0.33662  1.0000
  C   C113      1.0  0.75053  0.55315  0.33029  1.0000
  C   C114      1.0  0.76389  0.53827  0.32681  1.0000
  C   C115      1.0  0.80985  0.62383  0.34329  1.0000
  C   C116      1.0  0.83420  0.63861  0.29534  1.0000
  C   C117      1.0  0.84899  0.66687  0.29797  1.0000
  C   C118      1.0  0.84012  0.68191  0.34797  1.0000
  C   C119      1.0  0.81575  0.66708  0.39587  1.0000
  C   C120      1.0  0.80112  0.63884  0.39410  1.0000
  C   C121      1.0  0.80463  0.53464  0.32274  1.0000
  C   C122      1.0  0.82546  0.53830  0.38160  1.0000
  C   C123      1.0  0.83511  0.52008  0.38258  1.0000
  C   C124      1.0  0.82438  0.49748  0.32489  1.0000
  C   C125      1.0  0.80432  0.49461  0.26362  1.0000
  C   C126      1.0  0.79485  0.51286  0.26206  1.0000
  C   C127      1.0  0.72208  0.53916  0.32762  1.0000
  C   C128      1.0  0.70850  0.52427  0.25067  1.0000
  C   C129      1.0  0.68074  0.50603  0.25285  1.0000
  C   C130      1.0  0.66586  0.50169  0.33264  1.0000
  C   C131      1.0  0.67944  0.51704  0.40907  1.0000
  C   C132      1.0  0.70715  0.53570  0.40650  1.0000
  H   H76       1.0  0.84982  0.52328  0.42754  1.0000
  H   H77       1.0  0.83289  0.55352  0.42755  1.0000
  H   H78       1.0  0.79520  0.47833  0.22212  1.0000
  H   H79       1.0  0.77991  0.50945  0.21771  1.0000
  H   H80       1.0  0.71897  0.52565  0.19357  1.0000
  H   H81       1.0  0.67187  0.49461  0.19720  1.0000
  H   H82       1.0  0.71664  0.54534  0.46429  1.0000
  H   H83       1.0  0.66939  0.51411  0.46828  1.0000
  H   H84       1.0  0.78389  0.62931  0.43116  1.0000
  H   H85       1.0  0.80790  0.67671  0.43159  1.0000
  H   H86       1.0  0.86661  0.67633  0.26300  1.0000
  H   H87       1.0  0.84127  0.62895  0.25596  1.0000
  H   H88       1.0  0.82751  0.58836  0.33788  1.0000
  H   H89       1.0  0.75261  0.51774  0.32477  1.0000
  H   H90       1.0  0.75608  0.59204  0.33646  1.0000
  C   C133      1.0  0.28438  0.14503  0.34905  1.0000
  C   C134      1.0  0.22665  0.11555  0.34648  1.0000
  C   C135      1.0  0.24079  0.11568  0.42553  1.0000
  C   C136      1.0  0.26929  0.13056  0.42483  1.0000
  H   H91       1.0  0.27938  0.13114  0.48192  1.0000
  C   C137      1.0  0.15535  0.08269  0.41251  1.0000
  N   N7        1.0  0.18249  0.09604  0.40931  1.0000
  H   H92       1.0  0.14618  0.07983  0.47333  1.0000
  C   C138      1.0  0.22730  0.10021  0.50800  1.0000
  H   H93       1.0  0.21614  0.10868  0.53977  1.0000
  H   H94       1.0  0.24139  0.10053  0.55767  1.0000
  H   H95       1.0  0.21362  0.07924  0.49103  1.0000
  C   C139      1.0  0.85020  0.14034  0.34908  1.0000
  C   C140      1.0  0.87968  0.11207  0.34649  1.0000
  C   C141      1.0  0.87955  0.12608  0.42556  1.0000
  C   C142      1.0  0.86466  0.13970  0.42487  1.0000
  H   H96       1.0  0.86407  0.14920  0.48196  1.0000
  C   C143      1.0  0.91256  0.07365  0.41252  1.0000
  N   N8        1.0  0.89921  0.08744  0.40932  1.0000
  H   H97       1.0  0.91543  0.06736  0.47334  1.0000
  C   C144      1.0  0.89500  0.12805  0.50806  1.0000
  H   H98       1.0  0.88652  0.10841  0.53979  1.0000
  H   H99       1.0  0.89467  0.14181  0.55775  1.0000
  H   H100      1.0  0.91597  0.13535  0.49113  1.0000
  C   C145      1.0  0.85487  0.71084  0.34903  1.0000
  C   C146      1.0  0.88314  0.76859  0.34648  1.0000
  C   C147      1.0  0.86915  0.75444  0.42558  1.0000
  C   C148      1.0  0.85553  0.72593  0.42486  1.0000
  H   H101      1.0  0.84604  0.71584  0.48197  1.0000
  C   C149      1.0  0.92155  0.83989  0.41253  1.0000
  N   N9        1.0  0.90776  0.81275  0.40932  1.0000
  H   H102      1.0  0.92783  0.84905  0.47337  1.0000
  C   C150      1.0  0.86721  0.76792  0.50812  1.0000
  H   H103      1.0  0.88686  0.77909  0.53979  1.0000
  H   H104      1.0  0.85346  0.75383  0.55785  1.0000
  H   H105      1.0  0.85990  0.78159  0.49127  1.0000
  C   C151      1.0  0.53506  0.17154  0.40289  1.0000
  N   N10       1.0  0.55687  0.16847  0.39990  1.0000
  C   C152      1.0  0.58619  0.15433  0.34244  1.0000
  C   C153      1.0  0.59949  0.15360  0.42197  1.0000
  C   C154      1.0  0.62604  0.15818  0.41441  1.0000
  C   C155      1.0  0.63954  0.16335  0.33116  1.0000
  H   H106      1.0  0.63620  0.15905  0.47167  1.0000
  H   H107      1.0  0.53449  0.18414  0.44992  1.0000
  C   C156      1.0  0.58645  0.14781  0.51153  1.0000
  H   H108      1.0  0.56671  0.12977  0.50818  1.0000
  H   H109      1.0  0.58420  0.16464  0.53358  1.0000
  H   H110      1.0  0.59806  0.14444  0.56251  1.0000
  C   C157      1.0  0.82369  0.36450  0.40286  1.0000
  N   N11       1.0  0.82676  0.38938  0.39988  1.0000
  C   C158      1.0  0.84091  0.43284  0.34243  1.0000
  C   C159      1.0  0.84163  0.44687  0.42196  1.0000
  C   C160      1.0  0.83706  0.46884  0.41439  1.0000
  C   C161      1.0  0.83191  0.47719  0.33114  1.0000
  H   H111      1.0  0.83618  0.47812  0.47166  1.0000
  H   H112      1.0  0.81108  0.35132  0.44990  1.0000
  C   C162      1.0  0.84741  0.43961  0.51152  1.0000
  H   H113      1.0  0.86545  0.43791  0.50820  1.0000
  H   H114      1.0  0.83058  0.42053  0.53356  1.0000
  H   H115      1.0  0.85078  0.45459  0.56251  1.0000
  C   C163      1.0  0.63073  0.46018  0.40298  1.0000
  N   N12       1.0  0.60584  0.43836  0.39999  1.0000
  C   C164      1.0  0.56239  0.40905  0.34250  1.0000
  C   C165      1.0  0.54835  0.39574  0.42202  1.0000
  C   C166      1.0  0.52639  0.36919  0.41446  1.0000
  C   C167      1.0  0.51807  0.35569  0.33121  1.0000
  H   H116      1.0  0.51711  0.35903  0.47172  1.0000
  H   H117      1.0  0.64390  0.46075  0.45003  1.0000
  C   C168      1.0  0.55560  0.40879  0.51159  1.0000
  H   H118      1.0  0.55730  0.42852  0.50823  1.0000
  H   H119      1.0  0.57468  0.41104  0.53365  1.0000
  H   H120      1.0  0.54062  0.39718  0.56256  1.0000
