data_image0
_chemical_formula_structural       HC2HN2CHC5HC4HCH2C2HC2NH2NCNCNHCNC2ON2COC2H2C3H2C2H2NC2HNCNH2C13HCH3C3H3C8HC5H3C2H2NC2HN2C2HN2C2HNC5H2C2H2CNC2ONH2NCNC2ONH2NCNC2ONH2NCNC2ONH2N
_chemical_formula_sum              "H48 C90 N30 O6"
_cell_length_a       30.5072
_cell_length_b       30.5074
_cell_length_c       14.5687
_cell_angle_alpha    90.0002
_cell_angle_beta     89.9998
_cell_angle_gamma    120

_space_group_name_H-M_alt    "P 1"
_space_group_IT_number       1

loop_
  _space_group_symop_operation_xyz
  'x, y, z'

loop_
  _atom_site_type_symbol
  _atom_site_label
  _atom_site_symmetry_multiplicity
  _atom_site_fract_x
  _atom_site_fract_y
  _atom_site_fract_z
  _atom_site_occupancy
  H   H1        1.0  0.19563  0.57280  0.40159  1.0000
  C   C1        1.0  0.23107  0.46342  0.37571  1.0000
  C   C2        1.0  0.22378  0.50520  0.38672  1.0000
  H   H2        1.0  0.20125  0.42811  0.36294  1.0000
  N   N1        1.0  0.17699  0.50026  0.38098  1.0000
  N   N2        1.0  0.21142  0.86467  0.37941  1.0000
  C   C3        1.0  0.25194  0.91245  0.37564  1.0000
  H   H3        1.0  0.24645  0.94228  0.36296  1.0000
  C   C4        1.0  0.05060  0.61079  0.38077  1.0000
  C   C5        1.0  0.03501  0.69480  0.37959  1.0000
  C   C6        1.0  0.08564  0.70461  0.37894  1.0000
  C   C7        1.0  0.09276  0.66151  0.37807  1.0000
  C   C8        1.0  0.14101  0.66641  0.36800  1.0000
  H   H4        1.0  0.02896  0.72494  0.38169  1.0000
  C   C9        1.0  0.05814  0.56753  0.38076  1.0000
  C   C10       1.0  0.07373  0.48352  0.37954  1.0000
  C   C11       1.0  0.11662  0.53262  0.38176  1.0000
  C   C12       1.0  0.10822  0.57478  0.37985  1.0000
  H   H5        1.0  0.07978  0.45338  0.38166  1.0000
  C   C13       1.0  0.14863  0.62502  0.37011  1.0000
  H   H6        1.0  0.18482  0.63309  0.35859  1.0000
  H   H7        1.0  0.17210  0.69998  0.35320  1.0000
  C   C14       1.0  0.12393  0.75692  0.38107  1.0000
  C   C15       1.0  0.16562  0.53789  0.38863  1.0000
  H   H8        1.0  0.11320  0.78372  0.37591  1.0000
  C   C16       1.0  0.21525  0.82268  0.39545  1.0000
  C   C17       1.0  0.26442  0.82961  0.40855  1.0000
  N   N3        1.0  0.24806  0.75162  0.48458  1.0000
  H   H9        1.0  0.21950  0.74918  0.51851  1.0000
  H   H10       1.0  0.25975  0.72822  0.50045  1.0000
  N   N4        1.0  0.17413  0.77548  0.39333  1.0000
  C   C18       1.0  0.02310  0.47370  0.37889  1.0000
  N   N5        1.0  0.27886  0.47069  0.37940  1.0000
  C   C19       1.0  0.30101  0.91975  0.38670  1.0000
  N   N6        1.0  0.34286  0.96654  0.38098  1.0000
  H   H11       1.0  0.35981  0.45342  0.37584  1.0000
  C   C20       1.0  0.32085  0.51652  0.39539  1.0000
  N   N7        1.0  0.26598  0.55072  0.40241  1.0000
  C   C21       1.0  0.31391  0.55875  0.40854  1.0000
  C   C22       1.0  0.35284  0.60891  0.42693  1.0000
  O   O1        1.0  0.34720  0.64764  0.39594  1.0000
  N   N8        1.0  0.36805  0.52259  0.39328  1.0000
  N   N9        1.0  0.30433  0.87755  0.40241  1.0000
  C   C23       1.0  0.27564  0.79067  0.42699  1.0000
  O   O2        1.0  0.32016  0.79648  0.39642  1.0000
  C   C24       1.0  0.44874  0.46416  0.37961  1.0000
  C   C25       1.0  0.43892  0.50497  0.37894  1.0000
  H   H12       1.0  0.41859  0.42797  0.38160  1.0000
  H   H13       1.0  0.44356  0.59607  0.35319  1.0000
  C   C26       1.0  0.47018  0.12043  0.37895  1.0000
  C   C27       1.0  0.42937  0.06980  0.37959  1.0000
  C   C28       1.0  0.43558  0.02691  0.38182  1.0000
  H   H14       1.0  0.39318  0.06375  0.38158  1.0000
  H   H15       1.0  0.46787  0.95875  0.35839  1.0000
  C   C29       1.0  0.39186  0.97791  0.38867  1.0000
  C   C30       1.0  0.45617  0.15872  0.38101  1.0000
  H   H16       1.0  0.39676  0.94791  0.40167  1.0000
  H   H17       1.0  0.41864  0.14800  0.37582  1.0000
  N   N10       1.0  0.43591  0.24621  0.37940  1.0000
  C   C31       1.0  0.42864  0.28673  0.37571  1.0000
  C   C32       1.0  0.47042  0.33580  0.38675  1.0000
  H   H18       1.0  0.39334  0.28125  0.36293  1.0000
  N   N11       1.0  0.46549  0.37765  0.38101  1.0000
  C   C33       1.0  0.38661  0.49096  0.38101  1.0000
  N   N12       1.0  0.39180  0.62040  0.48477  1.0000
  H   H19       1.0  0.39460  0.59431  0.51810  1.0000
  H   H20       1.0  0.41565  0.65551  0.49968  1.0000
  C   C34       1.0  0.53274  0.56376  0.38084  1.0000
  C   C35       1.0  0.54000  0.52093  0.37998  1.0000
  C   C36       1.0  0.49784  0.47038  0.38180  1.0000
  C   C37       1.0  0.48202  0.55520  0.37816  1.0000
  C   C38       1.0  0.59023  0.53077  0.37024  1.0000
  C   C39       1.0  0.47713  0.59856  0.36805  1.0000
  C   C40       1.0  0.57600  0.61457  0.38084  1.0000
  C   C41       1.0  0.62672  0.62313  0.37810  1.0000
  C   C42       1.0  0.66983  0.67336  0.37890  1.0000
  C   C43       1.0  0.66001  0.71417  0.37960  1.0000
  C   C44       1.0  0.61091  0.70796  0.38183  1.0000
  C   C45       1.0  0.56875  0.65740  0.37996  1.0000
  C   C46       1.0  0.63162  0.57978  0.36801  1.0000
  H   H21       1.0  0.69015  0.75036  0.38162  1.0000
  C   C47       1.0  0.51851  0.64757  0.37034  1.0000
  H   H22       1.0  0.66518  0.58226  0.35306  1.0000
  H   H23       1.0  0.59830  0.50266  0.35848  1.0000
  H   H24       1.0  0.51044  0.67567  0.35855  1.0000
  C   C48       1.0  0.60564  0.75169  0.38869  1.0000
  C   C49       1.0  0.72213  0.68737  0.38103  1.0000
  C   C50       1.0  0.50311  0.42665  0.38867  1.0000
  H   H25       1.0  0.57073  0.74678  0.40167  1.0000
  H   H26       1.0  0.74893  0.72490  0.37585  1.0000
  H   H27       1.0  0.53802  0.43155  0.40165  1.0000
  C   C51       1.0  0.57978  0.09294  0.38087  1.0000
  C   C52       1.0  0.62261  0.14302  0.37997  1.0000
  C   C53       1.0  0.67316  0.15142  0.38182  1.0000
  C   C54       1.0  0.67938  0.10853  0.37958  1.0000
  C   C55       1.0  0.63856  0.05790  0.37893  1.0000
  C   C56       1.0  0.58833  0.05078  0.37817  1.0000
  C   C57       1.0  0.61278  0.18343  0.37026  1.0000
  C   C58       1.0  0.54498  0.00253  0.36810  1.0000
  H   H28       1.0  0.71557  0.11458  0.38162  1.0000
  C   C59       1.0  0.52897  0.08540  0.38088  1.0000
  C   C60       1.0  0.52041  0.12756  0.37819  1.0000
  C   C61       1.0  0.48614  0.03531  0.38000  1.0000
  C   C62       1.0  0.56376  0.17581  0.36814  1.0000
  C   C63       1.0  0.49597  0.99490  0.37027  1.0000
  H   H29       1.0  0.56128  0.20688  0.35317  1.0000
  H   H30       1.0  0.64089  0.21960  0.35855  1.0000
  H   H31       1.0  0.54747  0.97147  0.35298  1.0000
  C   C64       1.0  0.65257  0.01960  0.38103  1.0000
  C   C65       1.0  0.71689  0.20042  0.38869  1.0000
  H   H32       1.0  0.69010  0.03033  0.37584  1.0000
  H   H33       1.0  0.71199  0.23042  0.40168  1.0000
  N   N13       1.0  0.67283  0.93212  0.37943  1.0000
  C   C66       1.0  0.68009  0.89160  0.37567  1.0000
  C   C67       1.0  0.63832  0.84253  0.38673  1.0000
  H   H34       1.0  0.71541  0.89709  0.36300  1.0000
  N   N14       1.0  0.64325  0.80068  0.38101  1.0000
  N   N15       1.0  0.82988  0.70763  0.37941  1.0000
  C   C68       1.0  0.87766  0.71489  0.37569  1.0000
  C   C69       1.0  0.88496  0.67312  0.38671  1.0000
  H   H35       1.0  0.90749  0.75021  0.36297  1.0000
  N   N16       1.0  0.93175  0.67805  0.38098  1.0000
  N   N17       1.0  0.89733  0.31365  0.37945  1.0000
  C   C70       1.0  0.85681  0.26587  0.37568  1.0000
  C   C71       1.0  0.80774  0.25858  0.38673  1.0000
  H   H36       1.0  0.86229  0.23604  0.36301  1.0000
  N   N18       1.0  0.76589  0.21179  0.38101  1.0000
  C   C72       1.0  0.00052  0.60354  0.37990  1.0000
  C   C73       1.0  0.99212  0.64570  0.38178  1.0000
  C   C74       1.0  0.96012  0.55330  0.37010  1.0000
  C   C75       1.0  0.01598  0.51681  0.37808  1.0000
  C   C76       1.0  0.96772  0.51190  0.36816  1.0000
  H   H37       1.0  0.93665  0.47835  0.35312  1.0000
  H   H38       1.0  0.92392  0.54523  0.35859  1.0000
  C   C77       1.0  0.98481  0.42140  0.38106  1.0000
  C   C78       1.0  0.94312  0.64043  0.38863  1.0000
  H   H39       1.0  0.99554  0.39460  0.37591  1.0000
  H   H40       1.0  0.91311  0.60552  0.40159  1.0000
  C   C79       1.0  0.62701  0.92829  0.39546  1.0000
  N   N19       1.0  0.59280  0.83921  0.40243  1.0000
  C   C80       1.0  0.58477  0.87912  0.40857  1.0000
  C   C81       1.0  0.53460  0.86787  0.42698  1.0000
  O   O3        1.0  0.49589  0.82357  0.39566  1.0000
  N   N20       1.0  0.52310  0.89538  0.48468  1.0000
  H   H41       1.0  0.54919  0.92425  0.51807  1.0000
  H   H42       1.0  0.48799  0.88416  0.49949  1.0000
  N   N21       1.0  0.62092  0.96941  0.39332  1.0000
  C   C82       1.0  0.78788  0.66180  0.39543  1.0000
  N   N22       1.0  0.84276  0.62760  0.40239  1.0000
  C   C83       1.0  0.79482  0.61956  0.40852  1.0000
  C   C84       1.0  0.75590  0.56940  0.42692  1.0000
  O   O4        1.0  0.76156  0.53067  0.39596  1.0000
  N   N23       1.0  0.71687  0.55789  0.48460  1.0000
  H   H43       1.0  0.71420  0.58401  0.51814  1.0000
  H   H44       1.0  0.69314  0.52280  0.49978  1.0000
  N   N24       1.0  0.74069  0.65572  0.39329  1.0000
  C   C85       1.0  0.48173  0.25004  0.39541  1.0000
  N   N25       1.0  0.51594  0.33912  0.40245  1.0000
  C   C86       1.0  0.52397  0.29921  0.40858  1.0000
  C   C87       1.0  0.57412  0.31044  0.42699  1.0000
  O   O5        1.0  0.61287  0.35482  0.39601  1.0000
  N   N26       1.0  0.58561  0.28297  0.48482  1.0000
  H   H45       1.0  0.55951  0.25407  0.51813  1.0000
  H   H46       1.0  0.62072  0.29422  0.49974  1.0000
  N   N27       1.0  0.48781  0.20892  0.39330  1.0000
  C   C88       1.0  0.89350  0.35564  0.39548  1.0000
  N   N28       1.0  0.80442  0.30077  0.40244  1.0000
  C   C89       1.0  0.84433  0.34871  0.40858  1.0000
  C   C90       1.0  0.83308  0.38763  0.42699  1.0000
  O   O6        1.0  0.78879  0.38205  0.39566  1.0000
  N   N29       1.0  0.86058  0.42662  0.48474  1.0000
  H   H47       1.0  0.88944  0.42939  0.51814  1.0000
  H   H48       1.0  0.84936  0.45051  0.49955  1.0000
  N   N30       1.0  0.93461  0.40285  0.39333  1.0000
