data_image0
_chemical_formula_structural       CNHC4O2C2H4C2NC2O2C2H4C2NC2O2C2H4NCHNCHNCHNCHNCHNCHC24H15C24H15C24H15C24H15C24H15C24H15NHNCH2NCH2C2NC2O2C2H5C2NC2O2C2H5C2NC2O2C2H5C2NC2O2C2H5C2NC2O2C2H5C2NC2O2C2H5
_chemical_formula_sum              "C207 N18 H144 O18"
_cell_length_a       61.3561
_cell_length_b       61.3561
_cell_length_c       14.987
_cell_angle_alpha    90
_cell_angle_beta     90
_cell_angle_gamma    120

_space_group_name_H-M_alt    "P 1"
_space_group_IT_number       1

loop_
  _space_group_symop_operation_xyz
  'x, y, z'

loop_
  _atom_site_type_symbol
  _atom_site_label
  _atom_site_symmetry_multiplicity
  _atom_site_fract_x
  _atom_site_fract_y
  _atom_site_fract_z
  _atom_site_occupancy
  C   C1        1.0  0.01168  0.50301  0.39277  1.0000
  N   N1        1.0  0.01445  0.50758  0.23666  1.0000
  H   H1        1.0  0.01920  0.50618  0.45541  1.0000
  C   C2        1.0  0.02686  0.51223  0.31583  1.0000
  C   C3        1.0  0.97409  0.48529  0.30418  1.0000
  C   C4        1.0  0.98896  0.49463  0.22545  1.0000
  C   C5        1.0  0.97936  0.49202  0.13949  1.0000
  O   O1        1.0  0.99418  0.49877  0.07681  1.0000
  O   O2        1.0  0.95989  0.49603  0.12885  1.0000
  C   C6        1.0  0.94233  0.48140  0.05926  1.0000
  C   C7        1.0  0.91900  0.48453  0.06554  1.0000
  H   H2        1.0  0.93618  0.46137  0.06550  1.0000
  H   H3        1.0  0.90987  0.47792  0.13025  1.0000
  H   H4        1.0  0.90559  0.47359  0.01310  1.0000
  H   H5        1.0  0.92445  0.50429  0.05760  1.0000
  C   C8        1.0  0.51592  0.48923  0.30442  1.0000
  C   C9        1.0  0.48892  0.51500  0.31574  1.0000
  N   N2        1.0  0.49379  0.50744  0.23655  1.0000
  C   C10       1.0  0.50680  0.49495  0.22559  1.0000
  C   C11       1.0  0.50959  0.48804  0.13979  1.0000
  O   O3        1.0  0.50382  0.49688  0.07673  1.0000
  O   O4        1.0  0.50450  0.46421  0.12898  1.0000
  C   C12       1.0  0.51887  0.46052  0.06036  1.0000
  C   C13       1.0  0.51457  0.43362  0.06742  1.0000
  H   H6        1.0  0.53905  0.47378  0.06727  1.0000
  H   H7        1.0  0.52073  0.43080  0.13259  1.0000
  H   H8        1.0  0.52527  0.43053  0.01568  1.0000
  H   H9        1.0  0.49464  0.41990  0.05895  1.0000
  C   C14       1.0  0.51186  0.02703  0.30449  1.0000
  C   C15       1.0  0.48611  0.97425  0.31579  1.0000
  N   N3        1.0  0.49366  0.98669  0.23660  1.0000
  C   C16       1.0  0.50615  0.01219  0.22565  1.0000
  C   C17       1.0  0.51305  0.02189  0.13985  1.0000
  O   O5        1.0  0.50425  0.00728  0.07680  1.0000
  O   O6        1.0  0.53687  0.04068  0.12903  1.0000
  C   C18       1.0  0.54051  0.05871  0.06037  1.0000
  C   C19       1.0  0.56739  0.08135  0.06736  1.0000
  H   H10       1.0  0.52722  0.06558  0.06726  1.0000
  H   H11       1.0  0.57020  0.09033  0.13251  1.0000
  H   H12       1.0  0.57044  0.09511  0.01559  1.0000
  H   H13       1.0  0.58114  0.07517  0.05890  1.0000
  N   N4        1.0  0.25543  0.53687  0.27832  1.0000
  C   C20       1.0  0.27668  0.53558  0.26748  1.0000
  H   H14       1.0  0.28586  0.54111  0.20779  1.0000
  N   N5        1.0  0.46424  0.71885  0.27821  1.0000
  C   C21       1.0  0.46557  0.74140  0.26744  1.0000
  H   H15       1.0  0.46016  0.74515  0.20767  1.0000
  N   N6        1.0  0.28240  0.74553  0.27910  1.0000
  C   C22       1.0  0.25981  0.72434  0.26842  1.0000
  H   H16       1.0  0.25598  0.71525  0.20849  1.0000
  N   N7        1.0  0.74753  0.46367  0.28087  1.0000
  C   C23       1.0  0.72670  0.46574  0.27091  1.0000
  H   H17       1.0  0.71732  0.46045  0.21152  1.0000
  N   N8        1.0  0.53733  0.28410  0.28063  1.0000
  C   C24       1.0  0.53531  0.26122  0.27071  1.0000
  H   H18       1.0  0.54064  0.25715  0.21135  1.0000
  N   N9        1.0  0.71705  0.25350  0.28052  1.0000
  C   C25       1.0  0.73990  0.27441  0.27068  1.0000
  H   H19       1.0  0.74392  0.28388  0.21150  1.0000
  C   C26       1.0  0.17342  0.60964  0.33680  1.0000
  C   C27       1.0  0.14706  0.59534  0.32665  1.0000
  C   C28       1.0  0.13443  0.56868  0.32614  1.0000
  C   C29       1.0  0.14890  0.55659  0.33391  1.0000
  C   C30       1.0  0.17537  0.57048  0.34334  1.0000
  C   C31       1.0  0.18725  0.59702  0.34424  1.0000
  C   C32       1.0  0.10763  0.55433  0.32224  1.0000
  C   C33       1.0  0.09396  0.55928  0.25722  1.0000
  C   C34       1.0  0.06748  0.54522  0.25459  1.0000
  C   C35       1.0  0.05369  0.52609  0.31807  1.0000
  C   C36       1.0  0.06746  0.52116  0.38290  1.0000
  C   C37       1.0  0.09391  0.53493  0.38473  1.0000
  C   C38       1.0  0.18647  0.63627  0.34252  1.0000
  C   C39       1.0  0.19048  0.65113  0.26574  1.0000
  C   C40       1.0  0.20840  0.67703  0.26675  1.0000
  C   C41       1.0  0.22272  0.68882  0.34433  1.0000
  C   C42       1.0  0.21721  0.67399  0.42257  1.0000
  C   C43       1.0  0.19960  0.64811  0.42151  1.0000
  C   C44       1.0  0.19010  0.55852  0.35225  1.0000
  C   C45       1.0  0.20925  0.56684  0.41770  1.0000
  C   C46       1.0  0.22589  0.55740  0.42046  1.0000
  C   C47       1.0  0.22358  0.53883  0.35933  1.0000
  C   C48       1.0  0.20426  0.53019  0.29457  1.0000
  C   C49       1.0  0.18756  0.53967  0.29175  1.0000
  H   H20       1.0  0.21164  0.68692  0.20865  1.0000
  H   H21       1.0  0.18191  0.64290  0.20674  1.0000
  H   H22       1.0  0.22744  0.68133  0.47971  1.0000
  H   H23       1.0  0.19760  0.63768  0.47747  1.0000
  H   H24       1.0  0.21181  0.58051  0.46251  1.0000
  H   H25       1.0  0.24034  0.56498  0.46562  1.0000
  H   H26       1.0  0.17448  0.53375  0.24171  1.0000
  H   H27       1.0  0.20258  0.51733  0.24757  1.0000
  H   H28       1.0  0.10306  0.53095  0.43356  1.0000
  H   H29       1.0  0.05841  0.50715  0.42896  1.0000
  H   H30       1.0  0.05835  0.54954  0.20671  1.0000
  H   H31       1.0  0.10321  0.57302  0.21035  1.0000
  H   H32       1.0  0.13693  0.60446  0.32369  1.0000
  H   H33       1.0  0.20647  0.60747  0.34945  1.0000
  H   H34       1.0  0.14000  0.53734  0.33393  1.0000
  C   C50       1.0  0.39145  0.56408  0.33596  1.0000
  C   C51       1.0  0.40575  0.55202  0.32579  1.0000
  C   C52       1.0  0.43241  0.56605  0.32553  1.0000
  C   C53       1.0  0.44451  0.59261  0.33351  1.0000
  C   C54       1.0  0.43062  0.60519  0.34292  1.0000
  C   C55       1.0  0.40408  0.59054  0.34364  1.0000
  C   C56       1.0  0.44676  0.55361  0.32178  1.0000
  C   C57       1.0  0.44198  0.53513  0.25634  1.0000
  C   C58       1.0  0.45607  0.52275  0.25381  1.0000
  C   C59       1.0  0.47504  0.52795  0.31784  1.0000
  C   C60       1.0  0.47979  0.54650  0.38312  1.0000
  C   C61       1.0  0.46601  0.55917  0.38482  1.0000
  C   C62       1.0  0.36483  0.55051  0.34156  1.0000
  C   C63       1.0  0.34998  0.53967  0.26471  1.0000
  C   C64       1.0  0.32407  0.53164  0.26570  1.0000
  C   C65       1.0  0.31225  0.53410  0.34331  1.0000
  C   C66       1.0  0.32706  0.54341  0.42160  1.0000
  C   C67       1.0  0.35295  0.55174  0.42056  1.0000
  C   C68       1.0  0.44259  0.63187  0.35200  1.0000
  C   C69       1.0  0.43430  0.64269  0.41758  1.0000
  C   C70       1.0  0.44371  0.66876  0.42036  1.0000
  C   C71       1.0  0.46229  0.68503  0.35924  1.0000
  C   C72       1.0  0.47094  0.67438  0.29444  1.0000
  C   C73       1.0  0.46142  0.64819  0.29146  1.0000
  H   H35       1.0  0.31420  0.52502  0.20756  1.0000
  H   H36       1.0  0.35824  0.53937  0.20572  1.0000
  H   H37       1.0  0.31968  0.54626  0.47872  1.0000
  H   H38       1.0  0.36336  0.56015  0.47656  1.0000
  H   H39       1.0  0.42059  0.63156  0.46229  1.0000
  H   H40       1.0  0.43614  0.67563  0.46556  1.0000
  H   H41       1.0  0.46735  0.64104  0.24140  1.0000
  H   H42       1.0  0.48377  0.68556  0.24738  1.0000
  H   H43       1.0  0.46986  0.57220  0.43393  1.0000
  H   H44       1.0  0.49368  0.55136  0.42958  1.0000
  H   H45       1.0  0.45187  0.50940  0.20564  1.0000
  H   H46       1.0  0.42835  0.53074  0.20910  1.0000
  H   H47       1.0  0.39663  0.53277  0.32267  1.0000
  H   H48       1.0  0.39364  0.59931  0.34889  1.0000
  H   H49       1.0  0.46376  0.60295  0.33372  1.0000
  C   C74       1.0  0.43730  0.82777  0.33602  1.0000
  C   C75       1.0  0.44931  0.85412  0.32573  1.0000
  C   C76       1.0  0.43522  0.86670  0.32559  1.0000
  C   C77       1.0  0.40868  0.85219  0.33370  1.0000
  C   C78       1.0  0.39616  0.82573  0.34318  1.0000
  C   C79       1.0  0.41086  0.81389  0.34384  1.0000
  C   C80       1.0  0.44761  0.89349  0.32181  1.0000
  C   C81       1.0  0.46607  0.90720  0.25637  1.0000
  C   C82       1.0  0.47841  0.93367  0.25382  1.0000
  C   C83       1.0  0.47319  0.94742  0.31787  1.0000
  C   C84       1.0  0.45466  0.93361  0.38316  1.0000
  C   C85       1.0  0.44203  0.90716  0.38489  1.0000
  C   C86       1.0  0.45093  0.81477  0.34155  1.0000
  C   C87       1.0  0.46168  0.81071  0.26457  1.0000
  C   C88       1.0  0.46967  0.79281  0.26550  1.0000
  C   C89       1.0  0.46732  0.77860  0.34320  1.0000
  C   C90       1.0  0.45810  0.78416  0.42160  1.0000
  C   C91       1.0  0.44982  0.80176  0.42066  1.0000
  C   C92       1.0  0.36948  0.81095  0.35244  1.0000
  C   C93       1.0  0.35874  0.79188  0.41818  1.0000
  C   C94       1.0  0.33268  0.77518  0.42120  1.0000
  C   C95       1.0  0.31634  0.77736  0.36006  1.0000
  C   C96       1.0  0.32693  0.79661  0.29507  1.0000
  C   C97       1.0  0.35310  0.81335  0.29189  1.0000
  H   H50       1.0  0.47625  0.78952  0.20730  1.0000
  H   H51       1.0  0.46190  0.81921  0.20553  1.0000
  H   H52       1.0  0.45529  0.77396  0.47876  1.0000
  H   H53       1.0  0.44141  0.80375  0.47670  1.0000
  H   H54       1.0  0.36993  0.78938  0.46287  1.0000
  H   H55       1.0  0.32589  0.76076  0.46645  1.0000
  H   H56       1.0  0.36019  0.82642  0.24179  1.0000
  H   H57       1.0  0.31570  0.79821  0.24806  1.0000
  H   H58       1.0  0.42900  0.89796  0.43397  1.0000
  H   H59       1.0  0.44977  0.94262  0.42962  1.0000
  H   H60       1.0  0.49175  0.94284  0.20564  1.0000
  H   H61       1.0  0.47048  0.89799  0.20909  1.0000
  H   H62       1.0  0.46855  0.86429  0.32262  1.0000
  H   H63       1.0  0.40213  0.79468  0.34915  1.0000
  H   H64       1.0  0.39829  0.86105  0.33397  1.0000
  C   C98       1.0  0.82740  0.38811  0.34129  1.0000
  C   C99       1.0  0.85373  0.40207  0.32990  1.0000
  C   C100      1.0  0.86673  0.42875  0.32601  1.0000
  C   C101      1.0  0.85243  0.44109  0.33189  1.0000
  C   C102      1.0  0.82603  0.42759  0.34365  1.0000
  C   C103      1.0  0.81387  0.40106  0.34752  1.0000
  C   C104      1.0  0.89360  0.44287  0.31951  1.0000
  C   C105      1.0  0.90698  0.43524  0.26251  1.0000
  C   C106      1.0  0.93343  0.44907  0.25728  1.0000
  C   C107      1.0  0.94739  0.47126  0.30788  1.0000
  C   C108      1.0  0.93420  0.47867  0.36629  1.0000
  C   C109      1.0  0.90780  0.46476  0.37180  1.0000
  C   C110      1.0  0.81403  0.36149  0.34729  1.0000
  C   C111      1.0  0.81017  0.34658  0.27075  1.0000
  C   C112      1.0  0.79197  0.32078  0.27124  1.0000
  C   C113      1.0  0.77720  0.30914  0.34808  1.0000
  C   C114      1.0  0.78251  0.32396  0.42626  1.0000
  C   C115      1.0  0.80041  0.34977  0.42564  1.0000
  C   C116      1.0  0.81164  0.43993  0.35224  1.0000
  C   C117      1.0  0.79294  0.43233  0.41913  1.0000
  C   C118      1.0  0.77672  0.44227  0.42246  1.0000
  C   C119      1.0  0.77906  0.46069  0.36058  1.0000
  C   C120      1.0  0.79792  0.46859  0.29429  1.0000
  C   C121      1.0  0.81416  0.45858  0.29079  1.0000
  H   H65       1.0  0.78885  0.31085  0.21329  1.0000
  H   H66       1.0  0.81917  0.35472  0.21221  1.0000
  H   H67       1.0  0.77185  0.31674  0.48260  1.0000
  H   H68       1.0  0.80222  0.36025  0.48123  1.0000
  H   H69       1.0  0.79041  0.41886  0.46479  1.0000
  H   H70       1.0  0.76258  0.43519  0.46883  1.0000
  H   H71       1.0  0.82695  0.46403  0.23988  1.0000
  H   H72       1.0  0.79961  0.48133  0.24677  1.0000
  H   H73       1.0  0.89908  0.47064  0.41596  1.0000
  H   H74       1.0  0.94371  0.49444  0.40499  1.0000
  H   H75       1.0  0.94242  0.44275  0.21626  1.0000
  H   H76       1.0  0.89756  0.41962  0.22316  1.0000
  H   H77       1.0  0.86357  0.39265  0.32822  1.0000
  H   H78       1.0  0.79466  0.39086  0.35363  1.0000
  H   H79       1.0  0.86140  0.46032  0.32883  1.0000
  C   C122      1.0  0.61293  0.43950  0.34101  1.0000
  C   C123      1.0  0.59899  0.45189  0.32964  1.0000
  C   C124      1.0  0.57232  0.43824  0.32578  1.0000
  C   C125      1.0  0.55995  0.41159  0.33162  1.0000
  C   C126      1.0  0.57343  0.39867  0.34331  1.0000
  C   C127      1.0  0.59996  0.41302  0.34715  1.0000
  C   C128      1.0  0.55822  0.45101  0.31938  1.0000
  C   C129      1.0  0.56584  0.47200  0.26228  1.0000
  C   C130      1.0  0.55207  0.48467  0.25723  1.0000
  C   C131      1.0  0.52993  0.47653  0.30809  1.0000
  C   C132      1.0  0.52252  0.45593  0.36654  1.0000
  C   C133      1.0  0.53637  0.44337  0.37186  1.0000
  C   C134      1.0  0.63955  0.45273  0.34717  1.0000
  C   C135      1.0  0.65451  0.46384  0.27077  1.0000
  C   C136      1.0  0.68031  0.47142  0.27143  1.0000
  C   C137      1.0  0.69189  0.46821  0.34828  1.0000
  C   C138      1.0  0.67700  0.45860  0.42626  1.0000
  C   C139      1.0  0.65122  0.45077  0.42557  1.0000
  C   C140      1.0  0.56107  0.37193  0.35192  1.0000
  C   C141      1.0  0.56866  0.36083  0.41881  1.0000
  C   C142      1.0  0.55873  0.33468  0.42213  1.0000
  C   C143      1.0  0.54030  0.31860  0.36027  1.0000
  C   C144      1.0  0.53237  0.32955  0.29405  1.0000
  C   C145      1.0  0.54241  0.35582  0.29049  1.0000
  H   H80       1.0  0.69028  0.47829  0.21358  1.0000
  H   H81       1.0  0.64641  0.46474  0.21222  1.0000
  H   H82       1.0  0.68420  0.45519  0.48271  1.0000
  H   H83       1.0  0.64070  0.44207  0.48108  1.0000
  H   H84       1.0  0.58216  0.37178  0.46442  1.0000
  H   H85       1.0  0.56581  0.32761  0.46846  1.0000
  H   H86       1.0  0.53695  0.36316  0.23963  1.0000
  H   H87       1.0  0.51963  0.31851  0.24651  1.0000
  H   H88       1.0  0.53050  0.42879  0.41609  1.0000
  H   H89       1.0  0.50678  0.44971  0.40538  1.0000
  H   H90       1.0  0.55840  0.49998  0.21615  1.0000
  H   H91       1.0  0.58144  0.47816  0.22280  1.0000
  H   H92       1.0  0.60843  0.47116  0.32808  1.0000
  H   H93       1.0  0.61014  0.40399  0.35325  1.0000
  H   H94       1.0  0.54071  0.40135  0.32863  1.0000
  C   C146      1.0  0.56174  0.17380  0.34095  1.0000
  C   C147      1.0  0.54931  0.14746  0.32964  1.0000
  C   C148      1.0  0.56294  0.13442  0.32579  1.0000
  C   C149      1.0  0.58959  0.14867  0.33160  1.0000
  C   C150      1.0  0.60255  0.17508  0.34322  1.0000
  C   C151      1.0  0.58822  0.18729  0.34705  1.0000
  C   C152      1.0  0.55014  0.10754  0.31944  1.0000
  C   C153      1.0  0.52913  0.09419  0.26238  1.0000
  C   C154      1.0  0.51644  0.06774  0.25737  1.0000
  C   C155      1.0  0.52457  0.05374  0.30819  1.0000
  C   C156      1.0  0.54518  0.06691  0.36662  1.0000
  C   C157      1.0  0.55776  0.09332  0.37191  1.0000
  C   C158      1.0  0.54853  0.18721  0.34708  1.0000
  C   C159      1.0  0.53735  0.19100  0.27075  1.0000
  C   C160      1.0  0.52973  0.20918  0.27135  1.0000
  C   C161      1.0  0.53297  0.22402  0.34813  1.0000
  C   C162      1.0  0.54265  0.21881  0.42608  1.0000
  C   C163      1.0  0.55057  0.20092  0.42534  1.0000
  C   C164      1.0  0.62928  0.18942  0.35174  1.0000
  C   C165      1.0  0.64043  0.20817  0.41847  1.0000
  C   C166      1.0  0.66659  0.22433  0.42176  1.0000
  C   C167      1.0  0.68263  0.22189  0.35994  1.0000
  C   C168      1.0  0.67164  0.20300  0.29381  1.0000
  C   C169      1.0  0.64536  0.18681  0.29035  1.0000
  H   H95       1.0  0.52280  0.21223  0.21355  1.0000
  H   H96       1.0  0.53640  0.18194  0.21226  1.0000
  H   H97       1.0  0.54606  0.22944  0.48249  1.0000
  H   H98       1.0  0.55924  0.19909  0.48090  1.0000
  H   H99       1.0  0.62951  0.21076  0.46404  1.0000
  H   H100      1.0  0.67370  0.23852  0.46798  1.0000
  H   H101      1.0  0.63800  0.17398  0.23959  1.0000
  H   H102      1.0  0.68266  0.20124  0.24637  1.0000
  H   H103      1.0  0.57235  0.10202  0.41610  1.0000
  H   H104      1.0  0.55140  0.05739  0.40542  1.0000
  H   H105      1.0  0.50113  0.05878  0.21631  1.0000
  H   H106      1.0  0.52298  0.10363  0.22294  1.0000
  H   H107      1.0  0.53005  0.13766  0.32811  1.0000
  H   H108      1.0  0.59727  0.20650  0.35308  1.0000
  H   H109      1.0  0.59981  0.13966  0.32862  1.0000
  N   N10       1.0  0.98634  0.49021  0.38374  1.0000
  H   H110      1.0  0.95099  0.48793  0.66033  1.0000
  N   N11       1.0  0.51078  0.49636  0.38396  1.0000
  C   C170      1.0  0.49794  0.50887  0.39283  1.0000
  H   H111      1.0  0.49458  0.51306  0.45545  1.0000
  H   H112      1.0  0.51280  0.46297  0.66102  1.0000
  N   N12       1.0  0.50473  0.01474  0.38404  1.0000
  C   C171      1.0  0.49223  0.98940  0.39288  1.0000
  H   H113      1.0  0.48803  0.98184  0.45549  1.0000
  H   H114      1.0  0.53807  0.05017  0.66104  1.0000
  C   C172      1.0  0.24243  0.53187  0.35625  1.0000
  C   C173      1.0  0.28732  0.53037  0.34225  1.0000
  N   N13       1.0  0.27400  0.52518  0.41960  1.0000
  C   C174      1.0  0.25183  0.52489  0.43128  1.0000
  C   C175      1.0  0.24068  0.51914  0.51537  1.0000
  O   O7        1.0  0.25087  0.51370  0.57477  1.0000
  O   O8        1.0  0.21541  0.50638  0.51787  1.0000
  C   C176      1.0  0.20439  0.51292  0.59080  1.0000
  C   C177      1.0  0.17583  0.50055  0.57541  1.0000
  H   H115      1.0  0.21221  0.53329  0.59577  1.0000
  H   H116      1.0  0.20768  0.50607  0.65390  1.0000
  H   H117      1.0  0.17213  0.50735  0.51311  1.0000
  H   H118      1.0  0.16717  0.50521  0.63026  1.0000
  H   H119      1.0  0.16737  0.48014  0.57179  1.0000
  C   C178      1.0  0.46920  0.71083  0.35616  1.0000
  C   C179      1.0  0.47093  0.75732  0.34213  1.0000
  N   N14       1.0  0.47613  0.74917  0.41942  1.0000
  C   C180      1.0  0.47631  0.72723  0.43115  1.0000
  C   C181      1.0  0.48214  0.72179  0.51513  1.0000
  O   O9        1.0  0.48743  0.73748  0.57427  1.0000
  O   O10       1.0  0.49453  0.70895  0.51821  1.0000
  C   C182      1.0  0.48785  0.69160  0.59188  1.0000
  C   C183      1.0  0.49988  0.67507  0.57745  1.0000
  H   H120      1.0  0.46745  0.67928  0.59712  1.0000
  H   H121      1.0  0.49485  0.70191  0.65461  1.0000
  H   H122      1.0  0.49295  0.66440  0.51554  1.0000
  H   H123      1.0  0.49511  0.66190  0.63285  1.0000
  H   H124      1.0  0.52032  0.68680  0.57358  1.0000
  C   C184      1.0  0.29055  0.75842  0.35719  1.0000
  C   C185      1.0  0.24397  0.71372  0.34326  1.0000
  N   N15       1.0  0.25226  0.72697  0.42069  1.0000
  C   C186      1.0  0.27423  0.74906  0.43239  1.0000
  C   C187      1.0  0.27982  0.76018  0.51665  1.0000
  O   O11       1.0  0.26451  0.74950  0.57658  1.0000
  O   O12       1.0  0.29187  0.78543  0.51839  1.0000
  C   C188      1.0  0.30947  0.79687  0.59096  1.0000
  C   C189      1.0  0.32515  0.82544  0.57482  1.0000
  H   H125      1.0  0.32236  0.78945  0.59600  1.0000
  H   H126      1.0  0.29938  0.79351  0.65420  1.0000
  H   H127      1.0  0.33561  0.82922  0.51239  1.0000
  H   H128      1.0  0.33849  0.83442  0.62942  1.0000
  H   H129      1.0  0.31286  0.83351  0.57106  1.0000
  C   C190      1.0  0.76060  0.46820  0.35846  1.0000
  C   C191      1.0  0.71656  0.47131  0.34632  1.0000
  N   N16       1.0  0.72997  0.47608  0.42328  1.0000
  C   C192      1.0  0.75180  0.47563  0.43401  1.0000
  C   C193      1.0  0.76323  0.48113  0.51774  1.0000
  O   O13       1.0  0.75294  0.48602  0.57831  1.0000
  O   O14       1.0  0.78849  0.49405  0.51816  1.0000
  C   C194      1.0  0.80008  0.48787  0.59018  1.0000
  C   C195      1.0  0.82854  0.50038  0.57250  1.0000
  H   H130      1.0  0.79244  0.46754  0.59577  1.0000
  H   H131      1.0  0.79712  0.49487  0.65353  1.0000
  H   H132      1.0  0.83193  0.49344  0.50994  1.0000
  H   H133      1.0  0.83764  0.49602  0.62667  1.0000
  H   H134      1.0  0.83684  0.52077  0.56814  1.0000
  C   C196      1.0  0.53276  0.29263  0.35818  1.0000
  C   C197      1.0  0.52976  0.24552  0.34612  1.0000
  N   N17       1.0  0.52498  0.25415  0.42306  1.0000
  C   C198      1.0  0.52536  0.27640  0.43375  1.0000
  C   C199      1.0  0.51989  0.28235  0.51751  1.0000
  O   O15       1.0  0.51499  0.26715  0.57805  1.0000
  O   O16       1.0  0.50701  0.29472  0.51802  1.0000
  C   C200      1.0  0.51321  0.31248  0.59008  1.0000
  C   C201      1.0  0.50074  0.32847  0.57249  1.0000
  H   H135      1.0  0.53355  0.32515  0.59562  1.0000
  H   H136      1.0  0.50622  0.30252  0.65342  1.0000
  H   H137      1.0  0.50768  0.33880  0.50993  1.0000
  H   H138      1.0  0.50513  0.34193  0.62668  1.0000
  H   H139      1.0  0.48035  0.31639  0.56818  1.0000
  C   C202      1.0  0.70861  0.24027  0.35785  1.0000
  C   C203      1.0  0.75565  0.28447  0.34604  1.0000
  N   N18       1.0  0.74710  0.27094  0.42280  1.0000
  C   C204      1.0  0.72487  0.24904  0.43333  1.0000
  C   C205      1.0  0.71905  0.23755  0.51685  1.0000
  O   O17       1.0  0.73451  0.24733  0.57702  1.0000
  O   O18       1.0  0.70623  0.21228  0.51791  1.0000
  C   C206      1.0  0.68847  0.20110  0.59020  1.0000
  C   C207      1.0  0.67199  0.17266  0.57306  1.0000
  H   H140      1.0  0.67614  0.20917  0.59571  1.0000
  H   H141      1.0  0.69844  0.20394  0.65346  1.0000
  H   H142      1.0  0.66165  0.16940  0.51059  1.0000
  H   H143      1.0  0.65851  0.16387  0.62742  1.0000
  H   H144      1.0  0.68371  0.16395  0.56884  1.0000
