data_image0
_chemical_formula_structural       C2NC2OH3C2NC2OH3C2NC2OH3NCHNCHNCHNCHNCHNCHCNCNCNC18H12CNCNCNC18H12CNCNCNC18H12CNCNCNC18H12CNCNCNC18H12CNCNCNC18H12NCHNCHNCHC2NC2OH3C2NC2OH3C2NC2OH3C2NC2OH3C2NC2OH3C2NC2OH3
_chemical_formula_sum              "C171 N36 O9 H108"
_cell_length_a       60.1499
_cell_length_b       60.1499
_cell_length_c       15.0181
_cell_angle_alpha    90
_cell_angle_beta     90
_cell_angle_gamma    120

_space_group_name_H-M_alt    "P 1"
_space_group_IT_number       1

loop_
  _space_group_symop_operation_xyz
  'x, y, z'

loop_
  _atom_site_type_symbol
  _atom_site_label
  _atom_site_symmetry_multiplicity
  _atom_site_fract_x
  _atom_site_fract_y
  _atom_site_fract_z
  _atom_site_occupancy
  C   C1        1.0  0.97214  0.48625  0.32013  1.0000
  C   C2        1.0  0.02571  0.51114  0.32987  1.0000
  N   N1        1.0  0.01334  0.51635  0.26444  1.0000
  C   C3        1.0  0.98743  0.50498  0.25573  1.0000
  C   C4        1.0  0.97716  0.51198  0.17732  1.0000
  O   O1        1.0  0.96095  0.49017  0.12323  1.0000
  H   H1        1.0  0.99276  0.52638  0.13622  1.0000
  H   H2        1.0  0.96594  0.52056  0.20008  1.0000
  H   H3        1.0  0.97157  0.48364  0.09676  1.0000
  C   C5        1.0  0.51234  0.48563  0.31995  1.0000
  C   C6        1.0  0.48746  0.51432  0.32967  1.0000
  N   N2        1.0  0.48224  0.49673  0.26424  1.0000
  C   C7        1.0  0.49362  0.48220  0.25551  1.0000
  C   C8        1.0  0.48661  0.46492  0.17717  1.0000
  O   O2        1.0  0.50841  0.47048  0.12309  1.0000
  H   H4        1.0  0.47222  0.46612  0.13604  1.0000
  H   H5        1.0  0.47801  0.44511  0.19999  1.0000
  H   H6        1.0  0.51496  0.48762  0.09656  1.0000
  C   C9        1.0  0.51296  0.02648  0.32005  1.0000
  C   C10       1.0  0.48427  0.97291  0.32982  1.0000
  N   N3        1.0  0.50185  0.98528  0.26438  1.0000
  C   C11       1.0  0.51640  0.01119  0.25565  1.0000
  C   C12       1.0  0.53366  0.02145  0.17725  1.0000
  O   O3        1.0  0.52807  0.03766  0.12315  1.0000
  H   H7        1.0  0.53245  0.00585  0.13615  1.0000
  H   H8        1.0  0.55347  0.03266  0.20001  1.0000
  H   H9        1.0  0.51092  0.02705  0.09669  1.0000
  N   N4        1.0  0.24774  0.52527  0.26316  1.0000
  C   C13       1.0  0.27004  0.52608  0.24263  1.0000
  H   H10       1.0  0.27705  0.53086  0.17927  1.0000
  N   N5        1.0  0.47304  0.72213  0.26301  1.0000
  C   C14       1.0  0.47231  0.74365  0.24243  1.0000
  H   H11       1.0  0.46768  0.74599  0.17897  1.0000
  N   N6        1.0  0.27649  0.75073  0.26330  1.0000
  C   C15       1.0  0.25502  0.72842  0.24270  1.0000
  H   H12       1.0  0.25284  0.72141  0.17936  1.0000
  N   N7        1.0  0.75118  0.47363  0.26491  1.0000
  C   C16       1.0  0.72896  0.47303  0.24485  1.0000
  H   H13       1.0  0.72188  0.46839  0.18153  1.0000
  N   N8        1.0  0.52463  0.27719  0.26511  1.0000
  C   C17       1.0  0.52533  0.25561  0.24507  1.0000
  H   H14       1.0  0.53012  0.25329  0.18184  1.0000
  N   N9        1.0  0.72146  0.24723  0.26464  1.0000
  C   C18       1.0  0.74311  0.26942  0.24456  1.0000
  H   H15       1.0  0.74560  0.27648  0.18118  1.0000
  C   C19       1.0  0.17493  0.60546  0.32369  1.0000
  N   N10       1.0  0.14888  0.59210  0.32525  1.0000
  C   C20       1.0  0.13538  0.56610  0.33512  1.0000
  N   N11       1.0  0.14891  0.55362  0.34431  1.0000
  C   C21       1.0  0.17498  0.56624  0.34463  1.0000
  N   N12       1.0  0.18746  0.59210  0.33366  1.0000
  C   C22       1.0  0.10805  0.55239  0.33467  1.0000
  C   C23       1.0  0.09400  0.56425  0.30648  1.0000
  C   C24       1.0  0.06702  0.55060  0.30451  1.0000
  C   C25       1.0  0.05300  0.52468  0.33224  1.0000
  C   C26       1.0  0.06697  0.51280  0.36075  1.0000
  C   C27       1.0  0.09397  0.52635  0.36142  1.0000
  C   C28       1.0  0.18908  0.63246  0.31253  1.0000
  C   C29       1.0  0.18073  0.64861  0.35005  1.0000
  C   C30       1.0  0.19656  0.67553  0.34755  1.0000
  C   C31       1.0  0.22056  0.68704  0.30359  1.0000
  C   C32       1.0  0.22832  0.67082  0.26270  1.0000
  C   C33       1.0  0.21296  0.64402  0.26781  1.0000
  C   C34       1.0  0.18915  0.55330  0.35392  1.0000
  C   C35       1.0  0.21438  0.56642  0.38883  1.0000
  C   C36       1.0  0.22954  0.55472  0.39138  1.0000
  C   C37       1.0  0.21993  0.52949  0.35904  1.0000
  C   C38       1.0  0.19473  0.51618  0.32456  1.0000
  C   C39       1.0  0.17931  0.52773  0.32406  1.0000
  H   H16       1.0  0.19067  0.68667  0.37994  1.0000
  H   H17       1.0  0.16389  0.64094  0.38504  1.0000
  H   H18       1.0  0.24605  0.67828  0.23379  1.0000
  H   H19       1.0  0.21976  0.63302  0.24004  1.0000
  H   H20       1.0  0.22232  0.58495  0.41091  1.0000
  H   H21       1.0  0.24812  0.56529  0.41320  1.0000
  H   H22       1.0  0.16145  0.51788  0.29592  1.0000
  H   H23       1.0  0.18773  0.49830  0.29730  1.0000
  H   H24       1.0  0.10318  0.51687  0.38233  1.0000
  H   H25       1.0  0.05768  0.49390  0.37936  1.0000
  H   H26       1.0  0.05770  0.56002  0.28383  1.0000
  H   H27       1.0  0.10323  0.58297  0.28576  1.0000
  C   C40       1.0  0.39300  0.56905  0.32370  1.0000
  N   N13       1.0  0.40639  0.55639  0.32523  1.0000
  C   C41       1.0  0.43239  0.56892  0.33510  1.0000
  N   N14       1.0  0.44484  0.59493  0.34434  1.0000
  C   C42       1.0  0.43219  0.60835  0.34469  1.0000
  N   N15       1.0  0.40633  0.59493  0.33372  1.0000
  C   C43       1.0  0.44612  0.55532  0.33462  1.0000
  C   C44       1.0  0.43429  0.52942  0.30640  1.0000
  C   C45       1.0  0.44797  0.51612  0.30437  1.0000
  C   C46       1.0  0.47389  0.52804  0.33209  1.0000
  C   C47       1.0  0.48574  0.55389  0.36067  1.0000
  C   C48       1.0  0.47217  0.56730  0.36137  1.0000
  C   C49       1.0  0.36600  0.55618  0.31256  1.0000
  C   C50       1.0  0.34986  0.53169  0.35019  1.0000
  C   C51       1.0  0.32294  0.52056  0.34758  1.0000
  C   C52       1.0  0.31141  0.53303  0.30358  1.0000
  C   C53       1.0  0.32762  0.55702  0.26276  1.0000
  C   C54       1.0  0.35443  0.56849  0.26782  1.0000
  C   C55       1.0  0.44508  0.63546  0.35404  1.0000
  C   C56       1.0  0.43193  0.64752  0.38902  1.0000
  C   C57       1.0  0.44356  0.67437  0.39148  1.0000
  C   C58       1.0  0.46877  0.69002  0.35911  1.0000
  C   C59       1.0  0.48215  0.67821  0.32461  1.0000
  C   C60       1.0  0.47064  0.65124  0.32407  1.0000
  H   H28       1.0  0.31180  0.50352  0.37989  1.0000
  H   H29       1.0  0.35754  0.52249  0.38495  1.0000
  H   H30       1.0  0.32015  0.56729  0.23388  1.0000
  H   H31       1.0  0.36541  0.58629  0.24009  1.0000
  H   H32       1.0  0.41340  0.63690  0.41115  1.0000
  H   H33       1.0  0.43296  0.68234  0.41337  1.0000
  H   H34       1.0  0.48050  0.64324  0.29589  1.0000
  H   H35       1.0  0.50000  0.68911  0.29720  1.0000
  H   H36       1.0  0.48163  0.58600  0.38229  1.0000
  H   H37       1.0  0.50464  0.56350  0.37925  1.0000
  H   H38       1.0  0.43857  0.49739  0.28364  1.0000
  H   H39       1.0  0.41558  0.51992  0.28564  1.0000
  C   C61       1.0  0.42943  0.82370  0.32398  1.0000
  N   N16       1.0  0.44210  0.84975  0.32545  1.0000
  C   C62       1.0  0.42960  0.86324  0.33534  1.0000
  N   N17       1.0  0.40358  0.84969  0.34464  1.0000
  C   C63       1.0  0.39015  0.82362  0.34504  1.0000
  N   N18       1.0  0.40355  0.81116  0.33404  1.0000
  C   C64       1.0  0.44320  0.89057  0.33480  1.0000
  C   C65       1.0  0.46911  0.90463  0.30656  1.0000
  C   C66       1.0  0.48243  0.93160  0.30451  1.0000
  C   C67       1.0  0.47052  0.94562  0.33222  1.0000
  C   C68       1.0  0.44467  0.93164  0.36077  1.0000
  C   C69       1.0  0.43124  0.90465  0.36152  1.0000
  C   C70       1.0  0.44228  0.80956  0.31270  1.0000
  C   C71       1.0  0.46682  0.81794  0.34999  1.0000
  C   C72       1.0  0.47792  0.80212  0.34735  1.0000
  C   C73       1.0  0.46540  0.77811  0.30347  1.0000
  C   C74       1.0  0.44140  0.77033  0.26276  1.0000
  C   C75       1.0  0.42994  0.78567  0.26803  1.0000
  C   C76       1.0  0.36304  0.80944  0.35435  1.0000
  C   C77       1.0  0.35095  0.78422  0.38940  1.0000
  C   C78       1.0  0.32410  0.76903  0.39186  1.0000
  C   C79       1.0  0.30846  0.77859  0.35931  1.0000
  C   C80       1.0  0.32031  0.80377  0.32471  1.0000
  C   C81       1.0  0.34728  0.81923  0.32428  1.0000
  H   H40       1.0  0.49498  0.80802  0.37958  1.0000
  H   H41       1.0  0.47601  0.83479  0.38491  1.0000
  H   H42       1.0  0.43112  0.75259  0.23389  1.0000
  H   H43       1.0  0.41213  0.77885  0.24040  1.0000
  H   H44       1.0  0.36156  0.77631  0.41162  1.0000
  H   H45       1.0  0.31611  0.75046  0.41377  1.0000
  H   H46       1.0  0.35529  0.83708  0.29603  1.0000
  H   H47       1.0  0.30943  0.81073  0.29728  1.0000
  H   H48       1.0  0.41254  0.89543  0.38247  1.0000
  H   H49       1.0  0.43507  0.94094  0.37936  1.0000
  H   H50       1.0  0.50116  0.94092  0.28381  1.0000
  H   H51       1.0  0.47860  0.89540  0.28586  1.0000
  C   C82       1.0  0.82312  0.39230  0.32571  1.0000
  N   N19       1.0  0.84918  0.40558  0.32509  1.0000
  C   C83       1.0  0.86286  0.43164  0.33274  1.0000
  N   N20       1.0  0.84942  0.44424  0.34189  1.0000
  C   C84       1.0  0.82337  0.43174  0.34451  1.0000
  N   N21       1.0  0.81076  0.40581  0.33564  1.0000
  C   C85       1.0  0.89020  0.44531  0.32978  1.0000
  C   C86       1.0  0.90424  0.43227  0.32069  1.0000
  C   C87       1.0  0.93122  0.44577  0.31735  1.0000
  C   C88       1.0  0.94502  0.47282  0.32162  1.0000
  C   C89       1.0  0.93130  0.48601  0.33209  1.0000
  C   C90       1.0  0.90434  0.47247  0.33579  1.0000
  C   C91       1.0  0.80880  0.36527  0.31559  1.0000
  C   C92       1.0  0.81734  0.34911  0.35170  1.0000
  C   C93       1.0  0.80155  0.32218  0.34914  1.0000
  C   C94       1.0  0.77736  0.31070  0.30652  1.0000
  C   C95       1.0  0.76931  0.32690  0.26744  1.0000
  C   C96       1.0  0.78466  0.35370  0.27256  1.0000
  C   C97       1.0  0.80938  0.44486  0.35403  1.0000
  C   C98       1.0  0.78429  0.43201  0.39016  1.0000
  C   C99       1.0  0.76930  0.44388  0.39311  1.0000
  C   C100      1.0  0.77898  0.46906  0.36027  1.0000
  C   C101      1.0  0.80404  0.48214  0.32462  1.0000
  C   C102      1.0  0.81926  0.47037  0.32341  1.0000
  H   H52       1.0  0.80763  0.31101  0.38014  1.0000
  H   H53       1.0  0.83445  0.35678  0.38510  1.0000
  H   H54       1.0  0.75144  0.31943  0.23955  1.0000
  H   H55       1.0  0.77771  0.36468  0.24578  1.0000
  H   H56       1.0  0.77630  0.41352  0.41272  1.0000
  H   H57       1.0  0.75079  0.43348  0.41581  1.0000
  H   H58       1.0  0.83705  0.48005  0.29461  1.0000
  H   H59       1.0  0.81105  0.49996  0.29684  1.0000
  H   H60       1.0  0.89521  0.48284  0.34337  1.0000
  H   H61       1.0  0.94081  0.50557  0.33871  1.0000
  H   H62       1.0  0.94069  0.43567  0.31061  1.0000
  H   H63       1.0  0.89502  0.41267  0.31655  1.0000
  C   C103      1.0  0.60611  0.43035  0.32585  1.0000
  N   N22       1.0  0.59287  0.44317  0.32520  1.0000
  C   C104      1.0  0.56681  0.43082  0.33281  1.0000
  N   N23       1.0  0.55418  0.40480  0.34194  1.0000
  C   C105      1.0  0.56663  0.39120  0.34460  1.0000
  N   N24       1.0  0.59256  0.40447  0.33576  1.0000
  C   C106      1.0  0.55318  0.44454  0.32981  1.0000
  C   C107      1.0  0.56626  0.47162  0.32063  1.0000
  C   C108      1.0  0.55279  0.48513  0.31722  1.0000
  C   C109      1.0  0.52573  0.47191  0.32155  1.0000
  C   C110      1.0  0.51251  0.44500  0.33213  1.0000
  C   C111      1.0  0.52602  0.43155  0.33586  1.0000
  C   C112      1.0  0.63314  0.44302  0.31573  1.0000
  C   C113      1.0  0.64933  0.46774  0.35176  1.0000
  C   C114      1.0  0.67625  0.47880  0.34933  1.0000
  C   C115      1.0  0.68771  0.46606  0.30678  1.0000
  C   C116      1.0  0.67147  0.44183  0.26760  1.0000
  C   C117      1.0  0.64468  0.43042  0.27273  1.0000
  C   C118      1.0  0.55346  0.36408  0.35406  1.0000
  C   C119      1.0  0.56626  0.35179  0.39016  1.0000
  C   C120      1.0  0.55432  0.32492  0.39323  1.0000
  C   C121      1.0  0.52913  0.30945  0.36031  1.0000
  C   C122      1.0  0.51613  0.32151  0.32459  1.0000
  C   C123      1.0  0.52794  0.34851  0.32345  1.0000
  H   H64       1.0  0.68744  0.49605  0.38042  1.0000
  H   H65       1.0  0.64168  0.47715  0.38534  1.0000
  H   H66       1.0  0.67892  0.43141  0.23970  1.0000
  H   H67       1.0  0.63368  0.41250  0.24589  1.0000
  H   H68       1.0  0.58475  0.36225  0.41281  1.0000
  H   H69       1.0  0.56468  0.31678  0.41591  1.0000
  H   H70       1.0  0.51829  0.35664  0.29461  1.0000
  H   H71       1.0  0.49830  0.31074  0.29688  1.0000
  H   H72       1.0  0.51562  0.41205  0.34351  1.0000
  H   H73       1.0  0.49295  0.43498  0.33875  1.0000
  H   H74       1.0  0.56291  0.50469  0.31040  1.0000
  H   H75       1.0  0.58585  0.48197  0.31643  1.0000
  C   C124      1.0  0.56811  0.17552  0.32551  1.0000
  N   N25       1.0  0.55532  0.14945  0.32496  1.0000
  C   C125      1.0  0.56769  0.13577  0.33256  1.0000
  N   N26       1.0  0.59372  0.14918  0.34161  1.0000
  C   C126      1.0  0.60729  0.17523  0.34416  1.0000
  N   N27       1.0  0.59400  0.18787  0.33533  1.0000
  C   C127      1.0  0.55400  0.10842  0.32966  1.0000
  C   C128      1.0  0.52691  0.09439  0.32059  1.0000
  C   C129      1.0  0.51342  0.06741  0.31726  1.0000
  C   C130      1.0  0.52666  0.05359  0.32155  1.0000
  C   C131      1.0  0.55357  0.06731  0.33201  1.0000
  C   C132      1.0  0.56700  0.09427  0.33569  1.0000
  C   C133      1.0  0.55542  0.18985  0.31552  1.0000
  C   C134      1.0  0.53076  0.18136  0.35198  1.0000
  C   C135      1.0  0.51967  0.19719  0.34960  1.0000
  C   C136      1.0  0.53234  0.22136  0.30685  1.0000
  C   C137      1.0  0.55655  0.22936  0.26745  1.0000
  C   C138      1.0  0.56797  0.21397  0.27236  1.0000
  C   C139      1.0  0.63441  0.18921  0.35363  1.0000
  C   C140      1.0  0.64668  0.21433  0.38950  1.0000
  C   C141      1.0  0.67354  0.22928  0.39253  1.0000
  C   C142      1.0  0.68902  0.21954  0.35997  1.0000
  C   C143      1.0  0.67701  0.19445  0.32452  1.0000
  C   C144      1.0  0.65001  0.17927  0.32326  1.0000
  H   H76       1.0  0.50245  0.19113  0.38084  1.0000
  H   H77       1.0  0.52135  0.16428  0.38549  1.0000
  H   H78       1.0  0.56694  0.24721  0.23949  1.0000
  H   H79       1.0  0.58587  0.22089  0.24536  1.0000
  H   H80       1.0  0.63620  0.22236  0.41195  1.0000
  H   H81       1.0  0.68167  0.24781  0.41509  1.0000
  H   H82       1.0  0.64189  0.16146  0.29464  1.0000
  H   H83       1.0  0.68779  0.18739  0.29695  1.0000
  H   H84       1.0  0.58651  0.10339  0.34326  1.0000
  H   H85       1.0  0.56361  0.05778  0.33864  1.0000
  H   H86       1.0  0.49385  0.05796  0.31053  1.0000
  H   H87       1.0  0.51655  0.10362  0.31643  1.0000
  N   N28       1.0  0.98429  0.48071  0.38532  1.0000
  C   C145      1.0  0.01015  0.49218  0.39249  1.0000
  H   H88       1.0  0.01781  0.48736  0.44461  1.0000
  N   N29       1.0  0.51788  0.50333  0.38514  1.0000
  C   C146      1.0  0.50642  0.51772  0.39226  1.0000
  H   H89       1.0  0.51122  0.53019  0.44444  1.0000
  N   N30       1.0  0.49527  0.01434  0.38524  1.0000
  C   C147      1.0  0.48088  0.98848  0.39242  1.0000
  H   H90       1.0  0.46839  0.98081  0.44454  1.0000
  C   C148      1.0  0.23743  0.52063  0.34628  1.0000
  C   C149      1.0  0.28484  0.52436  0.31229  1.0000
  N   N31       1.0  0.27445  0.51966  0.39531  1.0000
  C   C150      1.0  0.25122  0.51702  0.41627  1.0000
  C   C151      1.0  0.24364  0.51182  0.51146  1.0000
  O   O4        1.0  0.21798  0.50568  0.53294  1.0000
  H   H91       1.0  0.25751  0.52794  0.55206  1.0000
  H   H92       1.0  0.24490  0.49499  0.53090  1.0000
  H   H93       1.0  0.21774  0.52177  0.54136  1.0000
  C   C152      1.0  0.47753  0.71634  0.34618  1.0000
  C   C153      1.0  0.47411  0.76023  0.31196  1.0000
  N   N32       1.0  0.47869  0.75446  0.39503  1.0000
  C   C154      1.0  0.48123  0.73382  0.41607  1.0000
  C   C155      1.0  0.48631  0.73141  0.51137  1.0000
  O   O5        1.0  0.49240  0.71187  0.53309  1.0000
  H   H94       1.0  0.47016  0.72919  0.55172  1.0000
  H   H95       1.0  0.50313  0.74949  0.53097  1.0000
  H   H96       1.0  0.47630  0.69556  0.54157  1.0000
  C   C156      1.0  0.28212  0.76105  0.34641  1.0000
  C   C157      1.0  0.23845  0.71362  0.31223  1.0000
  N   N33       1.0  0.24411  0.72402  0.39526  1.0000
  C   C158      1.0  0.26468  0.74725  0.41631  1.0000
  C   C159      1.0  0.26699  0.75483  0.51148  1.0000
  O   O6        1.0  0.28649  0.78050  0.53304  1.0000
  H   H97       1.0  0.26922  0.74096  0.55217  1.0000
  H   H98       1.0  0.24888  0.75356  0.53075  1.0000
  H   H99       1.0  0.30282  0.78074  0.54161  1.0000
  C   C160      1.0  0.76156  0.47804  0.34791  1.0000
  C   C161      1.0  0.71431  0.47485  0.31478  1.0000
  N   N34       1.0  0.72475  0.47935  0.39770  1.0000
  C   C162      1.0  0.74793  0.48180  0.41817  1.0000
  C   C163      1.0  0.75557  0.48682  0.51337  1.0000
  O   O7        1.0  0.78126  0.49298  0.53436  1.0000
  H   H100      1.0  0.74173  0.47062  0.55374  1.0000
  H   H101      1.0  0.75429  0.50360  0.53346  1.0000
  H   H102      1.0  0.78153  0.47690  0.54261  1.0000
  C   C164      1.0  0.52006  0.28303  0.34806  1.0000
  C   C165      1.0  0.52358  0.23920  0.31511  1.0000
  N   N35       1.0  0.51894  0.24504  0.39798  1.0000
  C   C166      1.0  0.51638  0.26570  0.41840  1.0000
  C   C167      1.0  0.51122  0.26827  0.51348  1.0000
  O   O8        1.0  0.50500  0.28778  0.53424  1.0000
  H   H103      1.0  0.52738  0.27065  0.55414  1.0000
  H   H104      1.0  0.49443  0.25019  0.53335  1.0000
  H   H105      1.0  0.52106  0.30415  0.54247  1.0000
  C   C168      1.0  0.71543  0.23691  0.34771  1.0000
  C   C169      1.0  0.75953  0.28409  0.31453  1.0000
  N   N36       1.0  0.75355  0.27372  0.39753  1.0000
  C   C170      1.0  0.73279  0.25056  0.41802  1.0000
  C   C171      1.0  0.73010  0.24299  0.51330  1.0000
  O   O9        1.0  0.71054  0.21730  0.53436  1.0000
  H   H106      1.0  0.72771  0.25685  0.55342  1.0000
  H   H107      1.0  0.74814  0.24426  0.53366  1.0000
  H   H108      1.0  0.69419  0.21705  0.54238  1.0000
