data_image0
_chemical_formula_structural       C2NHCHOCH2C2NHCHOCH4C6OC6OCHN3C2ONC2HN3C2ONCH2C3NH5C6N2H6C6N2H6N2CHCHNCHNCHNCHC3HNH2C3HNC3NH3C3HNC3NH3COCH3C2NC2O2CH3C3NC2O2CH3C2NC2O2CH3C2NC2O2CH3C3NH5C6N2H6C6N2H6N2CHCHNCHNCHNCHC3HNH2C3HNC3NH3C3HNC3NH3COCH3C2NC2O2CH3C3NC2O2CH3C2NC2O2CH3C2NC2O2CH3C6N2H5C6N2H6C6N2H6NCHNCHNCHNCHNCHNCHC3HNC3NH3C3HNC3NH3C3HNC3NH3C2NC2O2CH3C2NC2O2CH3C2NC2O2CH3C2NC2O2CH3C2NC2O2CH3C2NC2O2CH3C6N2H5C6N2H6C6N2H6NCHNCHNCHNCHNCHNCHC3HNC3NH3C3HNC3NH3C3HNC3NH3C2NC2O2CH3C2NC2O2CH3C2NC2O2CH3C2NC2O2CH3C2NC2O2CH3C2NC2O2CH3
_chemical_formula_sum              "C288 N96 H216 O48"
_cell_length_a       45.7585
_cell_length_b       45.7586
_cell_length_c       14.9139
_cell_angle_alpha    90
_cell_angle_beta     90
_cell_angle_gamma    120

_space_group_name_H-M_alt    "P 1"
_space_group_IT_number       1

loop_
  _space_group_symop_operation_xyz
  'x, y, z'

loop_
  _atom_site_type_symbol
  _atom_site_label
  _atom_site_symmetry_multiplicity
  _atom_site_fract_x
  _atom_site_fract_y
  _atom_site_fract_z
  _atom_site_occupancy
  C   C1        1.0  0.02237  0.26231  0.31164  1.0000
  C   C2        1.0  0.04122  0.29831  0.29562  1.0000
  N   N1        1.0  0.02766  0.31412  0.24774  1.0000
  H   H1        1.0  0.04083  0.33780  0.23127  1.0000
  C   C3        1.0  0.04199  0.24732  0.33703  1.0000
  H   H2        1.0  0.03052  0.22222  0.35207  1.0000
  O   O1        1.0  0.04957  0.33843  0.48578  1.0000
  C   C4        1.0  0.03097  0.30650  0.53116  1.0000
  H   H3        1.0  0.03451  0.30949  0.60373  1.0000
  H   H4        1.0  0.03818  0.28837  0.50762  1.0000
  C   C5        1.0  0.02237  0.76231  0.31164  1.0000
  C   C6        1.0  0.04122  0.79831  0.29562  1.0000
  N   N2        1.0  0.02766  0.81412  0.24774  1.0000
  H   H5        1.0  0.04083  0.83780  0.23127  1.0000
  C   C7        1.0  0.04199  0.74732  0.33703  1.0000
  H   H6        1.0  0.03052  0.72222  0.35207  1.0000
  O   O2        1.0  0.04957  0.83843  0.48578  1.0000
  C   C8        1.0  0.03097  0.80650  0.53116  1.0000
  H   H7        1.0  0.03451  0.80949  0.60373  1.0000
  H   H8        1.0  0.03818  0.78837  0.50762  1.0000
  H   H9        1.0  0.00743  0.30104  0.21216  1.0000
  H   H10       1.0  0.00743  0.80105  0.21216  1.0000
  C   C9        1.0  0.07615  0.31792  0.32010  1.0000
  C   C10       1.0  0.09471  0.30105  0.33775  1.0000
  C   C11       1.0  0.07754  0.26515  0.33844  1.0000
  C   C12       1.0  0.09553  0.24740  0.33264  1.0000
  C   C13       1.0  0.09304  0.35373  0.32983  1.0000
  C   C14       1.0  0.08319  0.35282  0.49341  1.0000
  O   O3        1.0  0.09429  0.36627  0.56620  1.0000
  C   C15       1.0  0.07615  0.81792  0.32010  1.0000
  C   C16       1.0  0.09471  0.80105  0.33775  1.0000
  C   C17       1.0  0.07754  0.76515  0.33844  1.0000
  C   C18       1.0  0.09553  0.74740  0.33264  1.0000
  C   C19       1.0  0.09304  0.85373  0.32983  1.0000
  C   C20       1.0  0.08319  0.85282  0.49341  1.0000
  O   O4        1.0  0.09428  0.86627  0.56620  1.0000
  C   C21       1.0  0.11947  0.25571  0.26331  1.0000
  H   H11       1.0  0.11885  0.26825  0.20721  1.0000
  N   N3        1.0  0.11545  0.37129  0.26308  1.0000
  N   N4        1.0  0.12856  0.31859  0.35646  1.0000
  N   N5        1.0  0.10087  0.23440  0.40894  1.0000
  C   C22       1.0  0.12744  0.22902  0.42265  1.0000
  C   C23       1.0  0.13113  0.21693  0.50499  1.0000
  O   O5        1.0  0.10838  0.20846  0.55992  1.0000
  N   N6        1.0  0.13278  0.39682  0.42691  1.0000
  C   C24       1.0  0.10177  0.36863  0.41685  1.0000
  C   C25       1.0  0.11947  0.75571  0.26331  1.0000
  H   H12       1.0  0.11885  0.76825  0.20721  1.0000
  N   N7        1.0  0.11545  0.87129  0.26308  1.0000
  N   N8        1.0  0.12856  0.81859  0.35647  1.0000
  N   N9        1.0  0.10087  0.73440  0.40894  1.0000
  C   C26       1.0  0.12744  0.72902  0.42265  1.0000
  C   C27       1.0  0.13113  0.71693  0.50499  1.0000
  O   O6        1.0  0.10838  0.70847  0.55992  1.0000
  N   N10       1.0  0.13278  0.89682  0.42691  1.0000
  C   C28       1.0  0.10177  0.86863  0.41685  1.0000
  H   H13       1.0  0.00424  0.29628  0.51701  1.0000
  H   H14       1.0  0.00424  0.79628  0.51701  1.0000
  C   C29       1.0  0.48585  0.24154  0.30838  1.0000
  C   C30       1.0  0.43201  0.18598  0.31045  1.0000
  C   C31       1.0  0.46744  0.20557  0.29205  1.0000
  N   N11       1.0  0.48204  0.18970  0.24916  1.0000
  H   H15       1.0  0.00294  0.20286  0.21624  1.0000
  H   H16       1.0  0.46889  0.16614  0.23148  1.0000
  H   H17       1.0  0.50743  0.30104  0.21216  1.0000
  H   H18       1.0  0.14201  0.34279  0.35333  1.0000
  H   H19       1.0  0.36550  0.16059  0.33115  1.0000
  C   C32       1.0  0.26481  0.24506  0.34427  1.0000
  C   C33       1.0  0.32121  0.25034  0.36571  1.0000
  C   C34       1.0  0.30063  0.26272  0.32824  1.0000
  C   C35       1.0  0.24424  0.26081  0.34638  1.0000
  C   C36       1.0  0.20818  0.24316  0.33495  1.0000
  C   C37       1.0  0.18837  0.25577  0.37615  1.0000
  N   N12       1.0  0.31473  0.29022  0.27304  1.0000
  N   N13       1.0  0.19307  0.21543  0.28068  1.0000
  H   H20       1.0  0.30067  0.29573  0.23596  1.0000
  H   H21       1.0  0.33871  0.30254  0.25954  1.0000
  H   H22       1.0  0.16888  0.20309  0.27027  1.0000
  H   H23       1.0  0.20643  0.20981  0.24111  1.0000
  H   H24       1.0  0.16691  0.28863  0.48351  1.0000
  H   H25       1.0  0.34460  0.21759  0.46708  1.0000
  C   C38       1.0  0.26423  0.02092  0.32847  1.0000
  C   C39       1.0  0.26666  0.07505  0.36488  1.0000
  C   C40       1.0  0.25038  0.04290  0.32098  1.0000
  C   C41       1.0  0.24423  0.48435  0.32888  1.0000
  C   C42       1.0  0.25807  0.46233  0.32185  1.0000
  C   C43       1.0  0.24171  0.43016  0.36573  1.0000
  N   N14       1.0  0.22348  0.03434  0.26568  1.0000
  N   N15       1.0  0.28502  0.47081  0.26682  1.0000
  H   H26       1.0  0.21643  0.51592  0.22306  1.0000
  H   H27       1.0  0.21431  0.04915  0.25558  1.0000
  H   H28       1.0  0.29397  0.45581  0.25667  1.0000
  H   H29       1.0  0.29201  0.98909  0.22381  1.0000
  H   H30       1.0  0.20682  0.37895  0.47565  1.0000
  H   H31       1.0  0.30085  0.12608  0.47485  1.0000
  N   N16       1.0  0.14790  0.25456  0.28036  1.0000
  N   N17       1.0  0.23575  0.38144  0.30003  1.0000
  C   C44       1.0  0.23509  0.35160  0.30063  1.0000
  H   H32       1.0  0.21910  0.33315  0.25737  1.0000
  C   C45       1.0  0.14410  0.40172  0.27297  1.0000
  H   H33       1.0  0.16040  0.41092  0.21992  1.0000
  N   N18       1.0  0.36026  0.25079  0.26634  1.0000
  C   C46       1.0  0.38807  0.24869  0.24777  1.0000
  H   H34       1.0  0.38782  0.23557  0.19198  1.0000
  N   N19       1.0  0.27298  0.12350  0.29631  1.0000
  C   C47       1.0  0.27409  0.15354  0.29563  1.0000
  H   H35       1.0  0.29004  0.17162  0.25153  1.0000
  N   N20       1.0  0.39442  0.13067  0.26130  1.0000
  C   C48       1.0  0.36587  0.10033  0.27419  1.0000
  H   H36       1.0  0.35045  0.08938  0.22014  1.0000
  C   C49       1.0  0.46562  0.25641  0.32809  1.0000
  C   C50       1.0  0.43012  0.23867  0.32171  1.0000
  C   C51       1.0  0.41293  0.20272  0.32087  1.0000
  H   H37       1.0  0.47677  0.28142  0.34402  1.0000
  N   N21       1.0  0.37868  0.18486  0.33405  1.0000
  H   H38       1.0  0.14058  0.30757  0.37729  1.0000
  H   H39       1.0  0.36599  0.19560  0.35109  1.0000
  C   C52       1.0  0.25026  0.21024  0.36652  1.0000
  C   C53       1.0  0.26987  0.19537  0.38725  1.0000
  C   C54       1.0  0.30499  0.21686  0.40116  1.0000
  H   H40       1.0  0.22478  0.19500  0.37266  1.0000
  N   N22       1.0  0.32165  0.20368  0.44701  1.0000
  C   C55       1.0  0.20525  0.28929  0.41142  1.0000
  C   C56       1.0  0.24013  0.31064  0.39379  1.0000
  C   C57       1.0  0.25922  0.29571  0.36805  1.0000
  N   N23       1.0  0.18941  0.30261  0.46034  1.0000
  H   H41       1.0  0.28478  0.31092  0.37119  1.0000
  H   H42       1.0  0.20243  0.32426  0.49015  1.0000
  H   H43       1.0  0.30917  0.18211  0.47747  1.0000
  C   C58       1.0  0.29971  0.03804  0.34526  1.0000
  C   C59       1.0  0.31826  0.07151  0.37751  1.0000
  C   C60       1.0  0.29989  0.08798  0.40080  1.0000
  H   H44       1.0  0.31261  0.02526  0.34536  1.0000
  N   N24       1.0  0.31403  0.11636  0.45313  1.0000
  C   C61       1.0  0.20844  0.41729  0.40106  1.0000
  C   C62       1.0  0.19022  0.43390  0.37823  1.0000
  C   C63       1.0  0.20877  0.46733  0.34596  1.0000
  N   N25       1.0  0.19399  0.38905  0.45385  1.0000
  H   H45       1.0  0.19584  0.48009  0.34528  1.0000
  H   H46       1.0  0.17344  0.38247  0.48685  1.0000
  H   H47       1.0  0.33436  0.12311  0.48710  1.0000
  C   C64       1.0  0.15351  0.24189  0.35666  1.0000
  O   O7        1.0  0.14567  0.19778  0.50467  1.0000
  C   C65       1.0  0.17200  0.20772  0.57041  1.0000
  H   H48       1.0  0.18290  0.19143  0.56275  1.0000
  H   H49       1.0  0.16206  0.20459  0.63853  1.0000
  H   H50       1.0  0.19214  0.23381  0.56090  1.0000
  C   C66       1.0  0.25394  0.40720  0.35793  1.0000
  C   C67       1.0  0.25174  0.34472  0.37016  1.0000
  N   N26       1.0  0.26892  0.36996  0.43042  1.0000
  C   C68       1.0  0.27227  0.40144  0.42644  1.0000
  C   C69       1.0  0.28841  0.42385  0.49662  1.0000
  O   O8        1.0  0.30226  0.41593  0.55426  1.0000
  O   O9        1.0  0.30508  0.45686  0.47690  1.0000
  C   C70       1.0  0.29790  0.47695  0.53758  1.0000
  H   H51       1.0  0.31209  0.50313  0.51549  1.0000
  H   H52       1.0  0.30580  0.47571  0.60597  1.0000
  H   H53       1.0  0.27110  0.46922  0.53741  1.0000
  C   C71       1.0  0.15498  0.41459  0.36042  1.0000
  C   C72       1.0  0.35579  0.26432  0.34261  1.0000
  C   C73       1.0  0.41232  0.25661  0.31599  1.0000
  N   N27       1.0  0.40835  0.27088  0.39171  1.0000
  C   C74       1.0  0.38257  0.27737  0.40659  1.0000
  C   C75       1.0  0.38008  0.28984  0.48969  1.0000
  O   O10       1.0  0.40393  0.29942  0.54142  1.0000
  O   O11       1.0  0.36483  0.30835  0.49057  1.0000
  C   C76       1.0  0.33963  0.29856  0.55958  1.0000
  H   H54       1.0  0.32798  0.31421  0.55297  1.0000
  H   H55       1.0  0.35085  0.30269  0.62638  1.0000
  H   H56       1.0  0.31982  0.27218  0.55294  1.0000
  C   C77       1.0  0.25470  0.09817  0.35523  1.0000
  C   C78       1.0  0.25779  0.16111  0.36464  1.0000
  N   N28       1.0  0.24020  0.13620  0.42542  1.0000
  C   C79       1.0  0.23642  0.10450  0.42277  1.0000
  C   C80       1.0  0.22000  0.08238  0.49342  1.0000
  O   O12       1.0  0.20631  0.09099  0.54986  1.0000
  O   O13       1.0  0.20373  0.04923  0.47610  1.0000
  C   C81       1.0  0.21133  0.03003  0.53885  1.0000
  H   H57       1.0  0.19752  0.00364  0.51836  1.0000
  H   H58       1.0  0.20329  0.03173  0.60672  1.0000
  H   H59       1.0  0.23823  0.03819  0.53926  1.0000
  C   C82       1.0  0.41575  0.15058  0.32745  1.0000
  C   C83       1.0  0.35377  0.09047  0.36268  1.0000
  N   N29       1.0  0.37512  0.11028  0.42815  1.0000
  C   C84       1.0  0.40611  0.13828  0.41675  1.0000
  C   C85       1.0  0.42326  0.15651  0.49268  1.0000
  O   O14       1.0  0.41160  0.14447  0.56643  1.0000
  O   O15       1.0  0.45709  0.17279  0.48883  1.0000
  C   C86       1.0  0.47334  0.20520  0.53256  1.0000
  H   H60       1.0  0.50043  0.21695  0.52113  1.0000
  H   H61       1.0  0.46897  0.20261  0.60489  1.0000
  H   H62       1.0  0.46481  0.22186  0.50547  1.0000
  C   C87       1.0  0.48585  0.74154  0.30838  1.0000
  C   C88       1.0  0.43201  0.68598  0.31045  1.0000
  C   C89       1.0  0.46744  0.70557  0.29205  1.0000
  N   N30       1.0  0.48204  0.68970  0.24916  1.0000
  H   H63       1.0  0.00294  0.70286  0.21624  1.0000
  H   H64       1.0  0.46889  0.66614  0.23148  1.0000
  H   H65       1.0  0.50743  0.80105  0.21216  1.0000
  H   H66       1.0  0.14201  0.84279  0.35334  1.0000
  H   H67       1.0  0.36550  0.66059  0.33115  1.0000
  C   C90       1.0  0.26481  0.74506  0.34427  1.0000
  C   C91       1.0  0.32121  0.75034  0.36571  1.0000
  C   C92       1.0  0.30063  0.76272  0.32824  1.0000
  C   C93       1.0  0.24424  0.76081  0.34638  1.0000
  C   C94       1.0  0.20818  0.74316  0.33495  1.0000
  C   C95       1.0  0.18837  0.75577  0.37615  1.0000
  N   N31       1.0  0.31473  0.79022  0.27304  1.0000
  N   N32       1.0  0.19307  0.71543  0.28068  1.0000
  H   H68       1.0  0.30067  0.79573  0.23596  1.0000
  H   H69       1.0  0.33871  0.80254  0.25954  1.0000
  H   H70       1.0  0.16888  0.70310  0.27027  1.0000
  H   H71       1.0  0.20643  0.70981  0.24111  1.0000
  H   H72       1.0  0.16691  0.78863  0.48351  1.0000
  H   H73       1.0  0.34460  0.71759  0.46708  1.0000
  C   C96       1.0  0.26423  0.52092  0.32847  1.0000
  C   C97       1.0  0.26666  0.57505  0.36488  1.0000
  C   C98       1.0  0.25038  0.54290  0.32098  1.0000
  C   C99       1.0  0.24423  0.98435  0.32888  1.0000
  C   C100      1.0  0.25807  0.96233  0.32185  1.0000
  C   C101      1.0  0.24171  0.93016  0.36573  1.0000
  N   N33       1.0  0.22349  0.53434  0.26568  1.0000
  N   N34       1.0  0.28502  0.97081  0.26682  1.0000
  H   H74       1.0  0.21643  0.01592  0.22306  1.0000
  H   H75       1.0  0.21431  0.54915  0.25558  1.0000
  H   H76       1.0  0.29397  0.95581  0.25667  1.0000
  H   H77       1.0  0.29201  0.48910  0.22381  1.0000
  H   H78       1.0  0.20682  0.87895  0.47565  1.0000
  H   H79       1.0  0.30085  0.62608  0.47485  1.0000
  N   N35       1.0  0.14790  0.75457  0.28036  1.0000
  N   N36       1.0  0.23575  0.88144  0.30003  1.0000
  C   C102      1.0  0.23509  0.85160  0.30063  1.0000
  H   H80       1.0  0.21910  0.83315  0.25737  1.0000
  C   C103      1.0  0.14410  0.90171  0.27297  1.0000
  H   H81       1.0  0.16040  0.91092  0.21992  1.0000
  N   N37       1.0  0.36026  0.75079  0.26634  1.0000
  C   C104      1.0  0.38807  0.74869  0.24777  1.0000
  H   H82       1.0  0.38782  0.73557  0.19198  1.0000
  N   N38       1.0  0.27298  0.62350  0.29631  1.0000
  C   C105      1.0  0.27409  0.65354  0.29563  1.0000
  H   H83       1.0  0.29004  0.67162  0.25153  1.0000
  N   N39       1.0  0.39442  0.63066  0.26130  1.0000
  C   C106      1.0  0.36587  0.60033  0.27419  1.0000
  H   H84       1.0  0.35045  0.58938  0.22014  1.0000
  C   C107      1.0  0.46562  0.75641  0.32809  1.0000
  C   C108      1.0  0.43012  0.73867  0.32171  1.0000
  C   C109      1.0  0.41293  0.70272  0.32087  1.0000
  H   H85       1.0  0.47677  0.78142  0.34402  1.0000
  N   N40       1.0  0.37868  0.68485  0.33405  1.0000
  H   H86       1.0  0.14058  0.80757  0.37729  1.0000
  H   H87       1.0  0.36599  0.69560  0.35109  1.0000
  C   C110      1.0  0.25026  0.71024  0.36652  1.0000
  C   C111      1.0  0.26987  0.69537  0.38725  1.0000
  C   C112      1.0  0.30499  0.71686  0.40116  1.0000
  H   H88       1.0  0.22478  0.69500  0.37266  1.0000
  N   N41       1.0  0.32165  0.70368  0.44701  1.0000
  C   C113      1.0  0.20525  0.78929  0.41142  1.0000
  C   C114      1.0  0.24013  0.81064  0.39379  1.0000
  C   C115      1.0  0.25922  0.79571  0.36805  1.0000
  N   N42       1.0  0.18941  0.80261  0.46034  1.0000
  H   H89       1.0  0.28478  0.81092  0.37119  1.0000
  H   H90       1.0  0.20243  0.82426  0.49015  1.0000
  H   H91       1.0  0.30917  0.68211  0.47747  1.0000
  C   C116      1.0  0.29971  0.53804  0.34526  1.0000
  C   C117      1.0  0.31826  0.57151  0.37751  1.0000
  C   C118      1.0  0.29989  0.58798  0.40080  1.0000
  H   H92       1.0  0.31261  0.52526  0.34536  1.0000
  N   N43       1.0  0.31404  0.61636  0.45313  1.0000
  C   C119      1.0  0.20844  0.91729  0.40106  1.0000
  C   C120      1.0  0.19022  0.93390  0.37823  1.0000
  C   C121      1.0  0.20877  0.96733  0.34596  1.0000
  N   N44       1.0  0.19399  0.88906  0.45385  1.0000
  H   H93       1.0  0.19584  0.98009  0.34528  1.0000
  H   H94       1.0  0.17344  0.88247  0.48685  1.0000
  H   H95       1.0  0.33436  0.62311  0.48710  1.0000
  C   C122      1.0  0.15351  0.74189  0.35666  1.0000
  O   O16       1.0  0.14567  0.69778  0.50467  1.0000
  C   C123      1.0  0.17201  0.70772  0.57041  1.0000
  H   H96       1.0  0.18290  0.69143  0.56275  1.0000
  H   H97       1.0  0.16206  0.70459  0.63853  1.0000
  H   H98       1.0  0.19214  0.73381  0.56090  1.0000
  C   C124      1.0  0.25394  0.90720  0.35793  1.0000
  C   C125      1.0  0.25174  0.84472  0.37016  1.0000
  N   N45       1.0  0.26892  0.86996  0.43042  1.0000
  C   C126      1.0  0.27227  0.90144  0.42644  1.0000
  C   C127      1.0  0.28841  0.92385  0.49662  1.0000
  O   O17       1.0  0.30226  0.91593  0.55426  1.0000
  O   O18       1.0  0.30508  0.95686  0.47690  1.0000
  C   C128      1.0  0.29790  0.97695  0.53758  1.0000
  H   H99       1.0  0.31209  0.00313  0.51549  1.0000
  H   H100      1.0  0.30580  0.97571  0.60597  1.0000
  H   H101      1.0  0.27110  0.96922  0.53741  1.0000
  C   C129      1.0  0.15498  0.91458  0.36042  1.0000
  C   C130      1.0  0.35579  0.76432  0.34261  1.0000
  C   C131      1.0  0.41232  0.75661  0.31599  1.0000
  N   N46       1.0  0.40835  0.77088  0.39171  1.0000
  C   C132      1.0  0.38257  0.77737  0.40659  1.0000
  C   C133      1.0  0.38008  0.78984  0.48969  1.0000
  O   O19       1.0  0.40393  0.79942  0.54142  1.0000
  O   O20       1.0  0.36483  0.80835  0.49057  1.0000
  C   C134      1.0  0.33963  0.79856  0.55958  1.0000
  H   H102      1.0  0.32798  0.81421  0.55297  1.0000
  H   H103      1.0  0.35085  0.80269  0.62638  1.0000
  H   H104      1.0  0.31982  0.77218  0.55294  1.0000
  C   C135      1.0  0.25470  0.59817  0.35523  1.0000
  C   C136      1.0  0.25779  0.66111  0.36464  1.0000
  N   N47       1.0  0.24020  0.63619  0.42542  1.0000
  C   C137      1.0  0.23642  0.60450  0.42277  1.0000
  C   C138      1.0  0.22000  0.58238  0.49342  1.0000
  O   O21       1.0  0.20631  0.59099  0.54986  1.0000
  O   O22       1.0  0.20373  0.54923  0.47610  1.0000
  C   C139      1.0  0.21133  0.53003  0.53885  1.0000
  H   H105      1.0  0.19752  0.50364  0.51836  1.0000
  H   H106      1.0  0.20329  0.53173  0.60672  1.0000
  H   H107      1.0  0.23823  0.53819  0.53926  1.0000
  C   C140      1.0  0.41575  0.65058  0.32745  1.0000
  C   C141      1.0  0.35377  0.59047  0.36268  1.0000
  N   N48       1.0  0.37512  0.61028  0.42815  1.0000
  C   C142      1.0  0.40611  0.63828  0.41675  1.0000
  C   C143      1.0  0.42326  0.65651  0.49268  1.0000
  O   O23       1.0  0.41161  0.64447  0.56643  1.0000
  O   O24       1.0  0.45709  0.67279  0.48883  1.0000
  C   C144      1.0  0.47334  0.70520  0.53256  1.0000
  H   H108      1.0  0.50042  0.71695  0.52113  1.0000
  H   H109      1.0  0.46897  0.70261  0.60489  1.0000
  H   H110      1.0  0.46481  0.72186  0.50547  1.0000
  C   C145      1.0  0.98585  0.24154  0.30838  1.0000
  C   C146      1.0  0.93201  0.18598  0.31045  1.0000
  C   C147      1.0  0.96744  0.20557  0.29205  1.0000
  C   C148      1.0  0.52237  0.26231  0.31164  1.0000
  C   C149      1.0  0.54122  0.29831  0.29562  1.0000
  C   C150      1.0  0.57615  0.31792  0.32010  1.0000
  N   N49       1.0  0.98204  0.18970  0.24916  1.0000
  N   N50       1.0  0.52766  0.31412  0.24774  1.0000
  H   H111      1.0  0.50294  0.20286  0.21624  1.0000
  H   H112      1.0  0.96889  0.16614  0.23148  1.0000
  H   H113      1.0  0.54083  0.33780  0.23127  1.0000
  H   H114      1.0  0.64201  0.34279  0.35333  1.0000
  H   H115      1.0  0.86550  0.16059  0.33115  1.0000
  C   C151      1.0  0.76481  0.24506  0.34427  1.0000
  C   C152      1.0  0.82121  0.25034  0.36571  1.0000
  C   C153      1.0  0.80063  0.26272  0.32824  1.0000
  C   C154      1.0  0.74424  0.26081  0.34638  1.0000
  C   C155      1.0  0.70818  0.24316  0.33495  1.0000
  C   C156      1.0  0.68837  0.25577  0.37615  1.0000
  N   N51       1.0  0.81473  0.29022  0.27304  1.0000
  N   N52       1.0  0.69307  0.21543  0.28068  1.0000
  H   H116      1.0  0.80067  0.29573  0.23596  1.0000
  H   H117      1.0  0.83871  0.30254  0.25954  1.0000
  H   H118      1.0  0.66888  0.20309  0.27027  1.0000
  H   H119      1.0  0.70643  0.20981  0.24111  1.0000
  H   H120      1.0  0.66691  0.28863  0.48351  1.0000
  H   H121      1.0  0.84461  0.21759  0.46708  1.0000
  C   C157      1.0  0.76423  0.02092  0.32847  1.0000
  C   C158      1.0  0.76666  0.07505  0.36488  1.0000
  C   C159      1.0  0.75038  0.04290  0.32098  1.0000
  C   C160      1.0  0.74423  0.48435  0.32888  1.0000
  C   C161      1.0  0.75808  0.46233  0.32185  1.0000
  C   C162      1.0  0.74171  0.43016  0.36573  1.0000
  N   N53       1.0  0.72349  0.03434  0.26568  1.0000
  N   N54       1.0  0.78502  0.47081  0.26682  1.0000
  H   H122      1.0  0.71643  0.51592  0.22306  1.0000
  H   H123      1.0  0.71431  0.04915  0.25558  1.0000
  H   H124      1.0  0.79398  0.45581  0.25667  1.0000
  H   H125      1.0  0.79201  0.98909  0.22381  1.0000
  H   H126      1.0  0.70682  0.37895  0.47565  1.0000
  H   H127      1.0  0.80085  0.12608  0.47485  1.0000
  N   N55       1.0  0.64790  0.25456  0.28036  1.0000
  C   C163      1.0  0.61947  0.25571  0.26331  1.0000
  H   H128      1.0  0.61885  0.26825  0.20721  1.0000
  N   N56       1.0  0.73575  0.38144  0.30003  1.0000
  C   C164      1.0  0.73509  0.35160  0.30063  1.0000
  H   H129      1.0  0.71910  0.33315  0.25737  1.0000
  N   N57       1.0  0.61545  0.37129  0.26308  1.0000
  C   C165      1.0  0.64410  0.40172  0.27297  1.0000
  H   H130      1.0  0.66040  0.41092  0.21992  1.0000
  N   N58       1.0  0.86026  0.25079  0.26634  1.0000
  C   C166      1.0  0.88807  0.24869  0.24777  1.0000
  H   H131      1.0  0.88782  0.23557  0.19198  1.0000
  N   N59       1.0  0.77298  0.12350  0.29631  1.0000
  C   C167      1.0  0.77409  0.15354  0.29563  1.0000
  H   H132      1.0  0.79005  0.17162  0.25153  1.0000
  N   N60       1.0  0.89442  0.13067  0.26130  1.0000
  C   C168      1.0  0.86587  0.10033  0.27419  1.0000
  H   H133      1.0  0.85044  0.08938  0.22014  1.0000
  C   C169      1.0  0.96562  0.25641  0.32809  1.0000
  C   C170      1.0  0.93012  0.23867  0.32171  1.0000
  C   C171      1.0  0.91293  0.20272  0.32087  1.0000
  H   H134      1.0  0.97677  0.28142  0.34402  1.0000
  N   N61       1.0  0.87868  0.18486  0.33405  1.0000
  C   C172      1.0  0.59471  0.30105  0.33775  1.0000
  C   C173      1.0  0.57754  0.26515  0.33844  1.0000
  C   C174      1.0  0.54199  0.24732  0.33703  1.0000
  N   N62       1.0  0.62856  0.31859  0.35646  1.0000
  H   H135      1.0  0.53052  0.22222  0.35207  1.0000
  H   H136      1.0  0.64058  0.30757  0.37729  1.0000
  H   H137      1.0  0.86599  0.19560  0.35109  1.0000
  C   C175      1.0  0.75026  0.21024  0.36652  1.0000
  C   C176      1.0  0.76987  0.19537  0.38725  1.0000
  C   C177      1.0  0.80499  0.21686  0.40116  1.0000
  H   H138      1.0  0.72478  0.19500  0.37266  1.0000
  N   N63       1.0  0.82165  0.20368  0.44701  1.0000
  C   C178      1.0  0.70525  0.28929  0.41142  1.0000
  C   C179      1.0  0.74013  0.31064  0.39379  1.0000
  C   C180      1.0  0.75922  0.29571  0.36805  1.0000
  N   N64       1.0  0.68941  0.30261  0.46034  1.0000
  H   H139      1.0  0.78478  0.31092  0.37119  1.0000
  H   H140      1.0  0.70243  0.32426  0.49015  1.0000
  H   H141      1.0  0.80917  0.18211  0.47747  1.0000
  C   C181      1.0  0.79971  0.03804  0.34526  1.0000
  C   C182      1.0  0.81826  0.07151  0.37751  1.0000
  C   C183      1.0  0.79989  0.08798  0.40080  1.0000
  H   H142      1.0  0.81261  0.02526  0.34536  1.0000
  N   N65       1.0  0.81403  0.11636  0.45313  1.0000
  C   C184      1.0  0.70844  0.41729  0.40106  1.0000
  C   C185      1.0  0.69022  0.43390  0.37823  1.0000
  C   C186      1.0  0.70877  0.46733  0.34596  1.0000
  N   N66       1.0  0.69399  0.38905  0.45385  1.0000
  H   H143      1.0  0.69584  0.48009  0.34528  1.0000
  H   H144      1.0  0.67344  0.38247  0.48685  1.0000
  H   H145      1.0  0.83436  0.12311  0.48710  1.0000
  C   C187      1.0  0.65351  0.24189  0.35666  1.0000
  C   C188      1.0  0.59553  0.24740  0.33264  1.0000
  N   N67       1.0  0.60087  0.23440  0.40894  1.0000
  C   C189      1.0  0.62744  0.22902  0.42265  1.0000
  C   C190      1.0  0.63113  0.21693  0.50499  1.0000
  O   O25       1.0  0.60838  0.20846  0.55992  1.0000
  O   O26       1.0  0.64567  0.19778  0.50467  1.0000
  C   C191      1.0  0.67201  0.20772  0.57041  1.0000
  H   H146      1.0  0.68290  0.19143  0.56275  1.0000
  H   H147      1.0  0.66206  0.20459  0.63853  1.0000
  H   H148      1.0  0.69214  0.23381  0.56090  1.0000
  C   C192      1.0  0.75394  0.40720  0.35793  1.0000
  C   C193      1.0  0.75174  0.34472  0.37016  1.0000
  N   N68       1.0  0.76892  0.36996  0.43042  1.0000
  C   C194      1.0  0.77227  0.40144  0.42644  1.0000
  C   C195      1.0  0.78841  0.42385  0.49662  1.0000
  O   O27       1.0  0.80226  0.41593  0.55426  1.0000
  O   O28       1.0  0.80508  0.45686  0.47690  1.0000
  C   C196      1.0  0.79790  0.47695  0.53758  1.0000
  H   H149      1.0  0.81209  0.50313  0.51549  1.0000
  H   H150      1.0  0.80580  0.47571  0.60597  1.0000
  H   H151      1.0  0.77110  0.46922  0.53741  1.0000
  C   C197      1.0  0.59304  0.35373  0.32983  1.0000
  C   C198      1.0  0.65498  0.41459  0.36042  1.0000
  N   N69       1.0  0.63278  0.39682  0.42691  1.0000
  C   C199      1.0  0.60177  0.36863  0.41685  1.0000
  C   C200      1.0  0.58319  0.35282  0.49341  1.0000
  O   O29       1.0  0.59429  0.36627  0.56620  1.0000
  O   O30       1.0  0.54956  0.33843  0.48578  1.0000
  C   C201      1.0  0.53097  0.30650  0.53116  1.0000
  H   H152      1.0  0.50424  0.29628  0.51701  1.0000
  H   H153      1.0  0.53451  0.30949  0.60373  1.0000
  H   H154      1.0  0.53819  0.28837  0.50762  1.0000
  C   C202      1.0  0.85579  0.26432  0.34261  1.0000
  C   C203      1.0  0.91232  0.25661  0.31599  1.0000
  N   N70       1.0  0.90835  0.27088  0.39171  1.0000
  C   C204      1.0  0.88257  0.27737  0.40659  1.0000
  C   C205      1.0  0.88008  0.28984  0.48969  1.0000
  O   O31       1.0  0.90393  0.29942  0.54142  1.0000
  O   O32       1.0  0.86483  0.30835  0.49057  1.0000
  C   C206      1.0  0.83964  0.29856  0.55958  1.0000
  H   H155      1.0  0.82798  0.31421  0.55297  1.0000
  H   H156      1.0  0.85085  0.30269  0.62638  1.0000
  H   H157      1.0  0.81982  0.27218  0.55294  1.0000
  C   C207      1.0  0.75470  0.09817  0.35523  1.0000
  C   C208      1.0  0.75779  0.16111  0.36464  1.0000
  N   N71       1.0  0.74020  0.13620  0.42542  1.0000
  C   C209      1.0  0.73642  0.10450  0.42277  1.0000
  C   C210      1.0  0.72000  0.08238  0.49342  1.0000
  O   O33       1.0  0.70631  0.09099  0.54986  1.0000
  O   O34       1.0  0.70373  0.04923  0.47610  1.0000
  C   C211      1.0  0.71133  0.03003  0.53885  1.0000
  H   H158      1.0  0.69752  0.00364  0.51836  1.0000
  H   H159      1.0  0.70329  0.03173  0.60672  1.0000
  H   H160      1.0  0.73823  0.03819  0.53926  1.0000
  C   C212      1.0  0.91575  0.15058  0.32745  1.0000
  C   C213      1.0  0.85377  0.09047  0.36268  1.0000
  N   N72       1.0  0.87512  0.11028  0.42815  1.0000
  C   C214      1.0  0.90611  0.13828  0.41675  1.0000
  C   C215      1.0  0.92326  0.15651  0.49268  1.0000
  O   O35       1.0  0.91160  0.14447  0.56643  1.0000
  O   O36       1.0  0.95708  0.17279  0.48883  1.0000
  C   C216      1.0  0.97334  0.20520  0.53256  1.0000
  H   H161      1.0  0.00042  0.21695  0.52113  1.0000
  H   H162      1.0  0.96897  0.20261  0.60489  1.0000
  H   H163      1.0  0.96481  0.22186  0.50547  1.0000
  C   C217      1.0  0.98585  0.74154  0.30838  1.0000
  C   C218      1.0  0.93201  0.68598  0.31045  1.0000
  C   C219      1.0  0.96744  0.70557  0.29205  1.0000
  C   C220      1.0  0.52237  0.76231  0.31164  1.0000
  C   C221      1.0  0.54122  0.79831  0.29562  1.0000
  C   C222      1.0  0.57615  0.81792  0.32010  1.0000
  N   N73       1.0  0.98204  0.68970  0.24916  1.0000
  N   N74       1.0  0.52766  0.81412  0.24774  1.0000
  H   H164      1.0  0.50294  0.70286  0.21624  1.0000
  H   H165      1.0  0.96889  0.66614  0.23148  1.0000
  H   H166      1.0  0.54083  0.83780  0.23127  1.0000
  H   H167      1.0  0.64202  0.84279  0.35334  1.0000
  H   H168      1.0  0.86550  0.66059  0.33115  1.0000
  C   C223      1.0  0.76481  0.74506  0.34427  1.0000
  C   C224      1.0  0.82121  0.75034  0.36571  1.0000
  C   C225      1.0  0.80063  0.76272  0.32824  1.0000
  C   C226      1.0  0.74424  0.76081  0.34638  1.0000
  C   C227      1.0  0.70818  0.74316  0.33495  1.0000
  C   C228      1.0  0.68837  0.75577  0.37615  1.0000
  N   N75       1.0  0.81474  0.79022  0.27304  1.0000
  N   N76       1.0  0.69307  0.71543  0.28068  1.0000
  H   H169      1.0  0.80067  0.79573  0.23596  1.0000
  H   H170      1.0  0.83871  0.80254  0.25954  1.0000
  H   H171      1.0  0.66888  0.70310  0.27027  1.0000
  H   H172      1.0  0.70643  0.70981  0.24111  1.0000
  H   H173      1.0  0.66692  0.78863  0.48351  1.0000
  H   H174      1.0  0.84461  0.71759  0.46708  1.0000
  C   C229      1.0  0.76423  0.52092  0.32847  1.0000
  C   C230      1.0  0.76666  0.57505  0.36488  1.0000
  C   C231      1.0  0.75038  0.54290  0.32098  1.0000
  C   C232      1.0  0.74423  0.98435  0.32888  1.0000
  C   C233      1.0  0.75807  0.96233  0.32185  1.0000
  C   C234      1.0  0.74171  0.93016  0.36573  1.0000
  N   N77       1.0  0.72349  0.53434  0.26568  1.0000
  N   N78       1.0  0.78502  0.97081  0.26682  1.0000
  H   H175      1.0  0.71643  0.01592  0.22306  1.0000
  H   H176      1.0  0.71431  0.54915  0.25558  1.0000
  H   H177      1.0  0.79397  0.95581  0.25667  1.0000
  H   H178      1.0  0.79201  0.48910  0.22381  1.0000
  H   H179      1.0  0.70682  0.87895  0.47565  1.0000
  H   H180      1.0  0.80085  0.62608  0.47485  1.0000
  N   N79       1.0  0.64790  0.75457  0.28036  1.0000
  C   C235      1.0  0.61947  0.75571  0.26331  1.0000
  H   H181      1.0  0.61885  0.76825  0.20721  1.0000
  N   N80       1.0  0.73575  0.88144  0.30003  1.0000
  C   C236      1.0  0.73509  0.85160  0.30063  1.0000
  H   H182      1.0  0.71910  0.83315  0.25737  1.0000
  N   N81       1.0  0.61545  0.87129  0.26308  1.0000
  C   C237      1.0  0.64410  0.90171  0.27297  1.0000
  H   H183      1.0  0.66040  0.91092  0.21992  1.0000
  N   N82       1.0  0.86026  0.75079  0.26634  1.0000
  C   C238      1.0  0.88807  0.74869  0.24777  1.0000
  H   H184      1.0  0.88782  0.73557  0.19198  1.0000
  N   N83       1.0  0.77298  0.62350  0.29631  1.0000
  C   C239      1.0  0.77409  0.65354  0.29563  1.0000
  H   H185      1.0  0.79004  0.67162  0.25153  1.0000
  N   N84       1.0  0.89442  0.63066  0.26130  1.0000
  C   C240      1.0  0.86587  0.60033  0.27419  1.0000
  H   H186      1.0  0.85044  0.58938  0.22014  1.0000
  C   C241      1.0  0.96562  0.75641  0.32809  1.0000
  C   C242      1.0  0.93012  0.73867  0.32171  1.0000
  C   C243      1.0  0.91293  0.70272  0.32087  1.0000
  H   H187      1.0  0.97677  0.78142  0.34402  1.0000
  N   N85       1.0  0.87868  0.68485  0.33405  1.0000
  C   C244      1.0  0.59471  0.80105  0.33775  1.0000
  C   C245      1.0  0.57754  0.76515  0.33844  1.0000
  C   C246      1.0  0.54199  0.74732  0.33703  1.0000
  N   N86       1.0  0.62856  0.81859  0.35647  1.0000
  H   H188      1.0  0.53052  0.72222  0.35207  1.0000
  H   H189      1.0  0.64058  0.80757  0.37729  1.0000
  H   H190      1.0  0.86599  0.69560  0.35109  1.0000
  C   C247      1.0  0.75026  0.71024  0.36652  1.0000
  C   C248      1.0  0.76987  0.69537  0.38725  1.0000
  C   C249      1.0  0.80499  0.71686  0.40116  1.0000
  H   H191      1.0  0.72478  0.69500  0.37266  1.0000
  N   N87       1.0  0.82165  0.70368  0.44701  1.0000
  C   C250      1.0  0.70525  0.78929  0.41142  1.0000
  C   C251      1.0  0.74013  0.81064  0.39379  1.0000
  C   C252      1.0  0.75922  0.79571  0.36805  1.0000
  N   N88       1.0  0.68941  0.80261  0.46034  1.0000
  H   H192      1.0  0.78478  0.81092  0.37119  1.0000
  H   H193      1.0  0.70242  0.82426  0.49015  1.0000
  H   H194      1.0  0.80917  0.68211  0.47747  1.0000
  C   C253      1.0  0.79971  0.53804  0.34526  1.0000
  C   C254      1.0  0.81826  0.57151  0.37751  1.0000
  C   C255      1.0  0.79989  0.58798  0.40080  1.0000
  H   H195      1.0  0.81261  0.52526  0.34536  1.0000
  N   N89       1.0  0.81404  0.61636  0.45313  1.0000
  C   C256      1.0  0.70844  0.91729  0.40106  1.0000
  C   C257      1.0  0.69022  0.93390  0.37823  1.0000
  C   C258      1.0  0.70877  0.96733  0.34596  1.0000
  N   N90       1.0  0.69399  0.88906  0.45385  1.0000
  H   H196      1.0  0.69584  0.98009  0.34528  1.0000
  H   H197      1.0  0.67344  0.88247  0.48685  1.0000
  H   H198      1.0  0.83436  0.62311  0.48710  1.0000
  C   C259      1.0  0.65351  0.74189  0.35666  1.0000
  C   C260      1.0  0.59553  0.74740  0.33264  1.0000
  N   N91       1.0  0.60087  0.73440  0.40894  1.0000
  C   C261      1.0  0.62744  0.72902  0.42265  1.0000
  C   C262      1.0  0.63113  0.71693  0.50499  1.0000
  O   O37       1.0  0.60838  0.70847  0.55992  1.0000
  O   O38       1.0  0.64567  0.69778  0.50467  1.0000
  C   C263      1.0  0.67200  0.70772  0.57041  1.0000
  H   H199      1.0  0.68290  0.69143  0.56275  1.0000
  H   H200      1.0  0.66206  0.70459  0.63853  1.0000
  H   H201      1.0  0.69214  0.73381  0.56090  1.0000
  C   C264      1.0  0.75394  0.90720  0.35793  1.0000
  C   C265      1.0  0.75174  0.84472  0.37016  1.0000
  N   N92       1.0  0.76892  0.86996  0.43042  1.0000
  C   C266      1.0  0.77227  0.90144  0.42644  1.0000
  C   C267      1.0  0.78841  0.92385  0.49662  1.0000
  O   O39       1.0  0.80226  0.91593  0.55426  1.0000
  O   O40       1.0  0.80508  0.95686  0.47690  1.0000
  C   C268      1.0  0.79790  0.97695  0.53758  1.0000
  H   H202      1.0  0.81209  0.00313  0.51549  1.0000
  H   H203      1.0  0.80580  0.97571  0.60597  1.0000
  H   H204      1.0  0.77110  0.96922  0.53741  1.0000
  C   C269      1.0  0.59304  0.85373  0.32983  1.0000
  C   C270      1.0  0.65498  0.91458  0.36042  1.0000
  N   N93       1.0  0.63278  0.89682  0.42691  1.0000
  C   C271      1.0  0.60177  0.86863  0.41685  1.0000
  C   C272      1.0  0.58319  0.85282  0.49341  1.0000
  O   O41       1.0  0.59428  0.86627  0.56620  1.0000
  O   O42       1.0  0.54957  0.83843  0.48578  1.0000
  C   C273      1.0  0.53097  0.80650  0.53116  1.0000
  H   H205      1.0  0.50424  0.79628  0.51701  1.0000
  H   H206      1.0  0.53451  0.80949  0.60373  1.0000
  H   H207      1.0  0.53819  0.78837  0.50762  1.0000
  C   C274      1.0  0.85579  0.76432  0.34261  1.0000
  C   C275      1.0  0.91232  0.75661  0.31599  1.0000
  N   N94       1.0  0.90835  0.77088  0.39171  1.0000
  C   C276      1.0  0.88257  0.77737  0.40659  1.0000
  C   C277      1.0  0.88008  0.78984  0.48969  1.0000
  O   O43       1.0  0.90393  0.79942  0.54142  1.0000
  O   O44       1.0  0.86483  0.80835  0.49057  1.0000
  C   C278      1.0  0.83963  0.79856  0.55958  1.0000
  H   H208      1.0  0.82798  0.81421  0.55297  1.0000
  H   H209      1.0  0.85086  0.80269  0.62638  1.0000
  H   H210      1.0  0.81982  0.77218  0.55294  1.0000
  C   C279      1.0  0.75470  0.59817  0.35523  1.0000
  C   C280      1.0  0.75779  0.66111  0.36464  1.0000
  N   N95       1.0  0.74020  0.63619  0.42542  1.0000
  C   C281      1.0  0.73642  0.60450  0.42277  1.0000
  C   C282      1.0  0.72000  0.58238  0.49342  1.0000
  O   O45       1.0  0.70631  0.59099  0.54986  1.0000
  O   O46       1.0  0.70373  0.54923  0.47610  1.0000
  C   C283      1.0  0.71133  0.53003  0.53885  1.0000
  H   H211      1.0  0.69752  0.50364  0.51836  1.0000
  H   H212      1.0  0.70329  0.53173  0.60672  1.0000
  H   H213      1.0  0.73823  0.53819  0.53926  1.0000
  C   C284      1.0  0.91575  0.65058  0.32745  1.0000
  C   C285      1.0  0.85377  0.59047  0.36268  1.0000
  N   N96       1.0  0.87513  0.61028  0.42815  1.0000
  C   C286      1.0  0.90611  0.63828  0.41675  1.0000
  C   C287      1.0  0.92326  0.65651  0.49268  1.0000
  O   O47       1.0  0.91161  0.64447  0.56643  1.0000
  O   O48       1.0  0.95708  0.67279  0.48883  1.0000
  C   C288      1.0  0.97334  0.70520  0.53256  1.0000
  H   H214      1.0  0.00043  0.71695  0.52113  1.0000
  H   H215      1.0  0.96896  0.70261  0.60489  1.0000
  H   H216      1.0  0.96481  0.72186  0.50547  1.0000
