data_image0
_chemical_formula_structural       CNC2NC4NC18H14C2NC16H12C3NC2NC5NC4NC18H14CNC16H12C11H11CNCNC4NC16H13CNC4H2NH2CNC4H2NH2CNC4H2NH2CNC4H2NH2CNC4H2NH2CNC3H2NH2CNC4H2NH2CNC4H2NH2CNC4H2NH2CNC4H2NH2CNC4H2NH2CNC4H2NH2C7NC12H12C2NC3NC3NC18H14C12H12C3NC3NC3NC18H14C3NC3NC2NC5NC20H15C8NC14H13C4HCNHNH2C4HCNHNH2C4HCNHNH2C4HCNHNH2C4HCNHNH2C4HC2NHNH2C4HCNHNH2C4HCNHNH2C4HCNHNH2C4HCNHNH2C4HCNHNH2C4HCNHNH2
_chemical_formula_sum              "C384 N72 H252"
_cell_length_a       68.7206
_cell_length_b       68.7208
_cell_length_c       14.9479
_cell_angle_alpha    90.0014
_cell_angle_beta     89.9714
_cell_angle_gamma    120

_space_group_name_H-M_alt    "P 1"
_space_group_IT_number       1

loop_
  _space_group_symop_operation_xyz
  'x, y, z'

loop_
  _atom_site_type_symbol
  _atom_site_label
  _atom_site_symmetry_multiplicity
  _atom_site_fract_x
  _atom_site_fract_y
  _atom_site_fract_z
  _atom_site_occupancy
  C   C1        1.0  0.27640  0.51377  0.33639  1.0000
  N   N1        1.0  0.26897  0.47885  0.33674  1.0000
  C   C2        1.0  0.29171  0.49148  0.33682  1.0000
  C   C3        1.0  0.30817  0.48466  0.33712  1.0000
  N   N2        1.0  0.28284  0.44315  0.33690  1.0000
  C   C4        1.0  0.28442  0.42432  0.33741  1.0000
  C   C5        1.0  0.30740  0.43162  0.33889  1.0000
  C   C6        1.0  0.31900  0.45481  0.33850  1.0000
  C   C7        1.0  0.26666  0.40159  0.33695  1.0000
  N   N3        1.0  0.23321  0.40733  0.33678  1.0000
  C   C8        1.0  0.21045  0.39471  0.33662  1.0000
  C   C9        1.0  0.22582  0.37243  0.33662  1.0000
  C   C10       1.0  0.21783  0.46199  0.33583  1.0000
  C   C11       1.0  0.23558  0.48466  0.33636  1.0000
  C   C12       1.0  0.22973  0.50187  0.33602  1.0000
  C   C13       1.0  0.22441  0.50873  0.25507  1.0000
  C   C14       1.0  0.22091  0.52723  0.25330  1.0000
  C   C15       1.0  0.22280  0.53957  0.33198  1.0000
  C   C16       1.0  0.15988  0.37437  0.25558  1.0000
  C   C17       1.0  0.13650  0.35956  0.25382  1.0000
  C   C18       1.0  0.27289  0.38463  0.33711  1.0000
  C   C19       1.0  0.29046  0.35463  0.34125  1.0000
  C   C20       1.0  0.28917  0.36463  0.26015  1.0000
  C   C21       1.0  0.28053  0.37937  0.25797  1.0000
  C   C22       1.0  0.33123  0.50188  0.33745  1.0000
  C   C23       1.0  0.34170  0.51364  0.25814  1.0000
  C   C24       1.0  0.36366  0.53220  0.26028  1.0000
  C   C25       1.0  0.37587  0.53958  0.34149  1.0000
  H   H1        1.0  0.37020  0.54097  0.20223  1.0000
  H   H2        1.0  0.33307  0.50932  0.19891  1.0000
  H   H3        1.0  0.27517  0.52799  0.33589  1.0000
  H   H4        1.0  0.26091  0.46272  0.33672  1.0000
  H   H5        1.0  0.24128  0.42346  0.33679  1.0000
  H   H6        1.0  0.33611  0.46459  0.33918  1.0000
  H   H7        1.0  0.31482  0.42192  0.34007  1.0000
  H   H8        1.0  0.28069  0.38697  0.19882  1.0000
  H   H9        1.0  0.29557  0.36217  0.20216  1.0000
  H   H10       1.0  0.22713  0.35825  0.33643  1.0000
  H   H11       1.0  0.16876  0.37813  0.19697  1.0000
  H   H12       1.0  0.12915  0.35266  0.19376  1.0000
  H   H13       1.0  0.21731  0.53183  0.19319  1.0000
  H   H14       1.0  0.22365  0.50067  0.19643  1.0000
  C   C26       1.0  0.54620  0.76351  0.33673  1.0000
  C   C27       1.0  0.56850  0.80112  0.33718  1.0000
  N   N4        1.0  0.61683  0.84058  0.33731  1.0000
  C   C28       1.0  0.63566  0.86100  0.33780  1.0000
  C   C29       1.0  0.62836  0.87668  0.33929  1.0000
  C   C30       1.0  0.60517  0.86508  0.33893  1.0000
  C   C31       1.0  0.65839  0.86596  0.33733  1.0000
  C   C32       1.0  0.66527  0.81663  0.33702  1.0000
  C   C33       1.0  0.68755  0.85429  0.33697  1.0000
  C   C34       1.0  0.59799  0.75673  0.33629  1.0000
  C   C35       1.0  0.55128  0.71657  0.25551  1.0000
  C   C36       1.0  0.53278  0.69457  0.25374  1.0000
  C   C37       1.0  0.68563  0.78641  0.25604  1.0000
  C   C38       1.0  0.70044  0.77783  0.25429  1.0000
  C   C39       1.0  0.67535  0.88915  0.33745  1.0000
  C   C40       1.0  0.69537  0.92541  0.26037  1.0000
  C   C41       1.0  0.68061  0.90203  0.25827  1.0000
  C   C42       1.0  0.54636  0.82896  0.25847  1.0000
  C   C43       1.0  0.52780  0.83236  0.26057  1.0000
  H   H15       1.0  0.51907  0.83015  0.20246  1.0000
  H   H16       1.0  0.55072  0.82467  0.19923  1.0000
  H   H17       1.0  0.53198  0.74807  0.33624  1.0000
  H   H18       1.0  0.59539  0.87241  0.33957  1.0000
  H   H19       1.0  0.63806  0.89379  0.34045  1.0000
  H   H20       1.0  0.67301  0.89459  0.19916  1.0000
  H   H21       1.0  0.69779  0.93426  0.20242  1.0000
  H   H22       1.0  0.70173  0.86977  0.33681  1.0000
  H   H23       1.0  0.68189  0.79153  0.19742  1.0000
  H   H24       1.0  0.70735  0.77739  0.19423  1.0000
  H   H25       1.0  0.52821  0.68637  0.19363  1.0000
  H   H26       1.0  0.55935  0.72387  0.19688  1.0000
  C   C44       1.0  0.27640  0.76352  0.33678  1.0000
  C   C45       1.0  0.29647  0.78358  0.33610  1.0000
  C   C46       1.0  0.29171  0.80113  0.33644  1.0000
  N   N5        1.0  0.26897  0.79101  0.33645  1.0000
  C   C47       1.0  0.25886  0.76827  0.33646  1.0000
  C   C48       1.0  0.23559  0.75181  0.33675  1.0000
  N   N6        1.0  0.21940  0.77714  0.33652  1.0000
  C   C49       1.0  0.19899  0.77556  0.33699  1.0000
  C   C50       1.0  0.18331  0.75258  0.33848  1.0000
  C   C51       1.0  0.19490  0.74098  0.33814  1.0000
  C   C52       1.0  0.19403  0.79333  0.33652  1.0000
  C   C53       1.0  0.21044  0.81662  0.33649  1.0000
  N   N7        1.0  0.23320  0.82677  0.33638  1.0000
  C   C54       1.0  0.24335  0.84953  0.33627  1.0000
  C   C55       1.0  0.22580  0.85427  0.33649  1.0000
  C   C56       1.0  0.20570  0.83416  0.33620  1.0000
  C   C57       1.0  0.26664  0.86595  0.33626  1.0000
  N   N8        1.0  0.28283  0.84058  0.33632  1.0000
  C   C58       1.0  0.30325  0.84216  0.33567  1.0000
  C   C59       1.0  0.30817  0.82440  0.33620  1.0000
  C   C60       1.0  0.33123  0.83025  0.33597  1.0000
  C   C61       1.0  0.34344  0.83560  0.25505  1.0000
  C   C62       1.0  0.36545  0.83910  0.25337  1.0000
  C   C63       1.0  0.37587  0.83719  0.33209  1.0000
  C   C64       1.0  0.27287  0.88914  0.33617  1.0000
  C   C65       1.0  0.27361  0.90013  0.25536  1.0000
  C   C66       1.0  0.28217  0.92351  0.25366  1.0000
  C   C67       1.0  0.29045  0.93671  0.33224  1.0000
  C   C68       1.0  0.17084  0.78710  0.33669  1.0000
  C   C69       1.0  0.12326  0.76951  0.34081  1.0000
  C   C70       1.0  0.13457  0.77083  0.25970  1.0000
  C   C71       1.0  0.15796  0.77946  0.25756  1.0000
  C   C72       1.0  0.22974  0.72875  0.33710  1.0000
  C   C73       1.0  0.23103  0.71829  0.25778  1.0000
  C   C74       1.0  0.22768  0.69635  0.25996  1.0000
  C   C75       1.0  0.22281  0.68412  0.34115  1.0000
  H   H27       1.0  0.22989  0.68981  0.20188  1.0000
  H   H28       1.0  0.23538  0.72694  0.19856  1.0000
  H   H29       1.0  0.31191  0.78481  0.33566  1.0000
  H   H30       1.0  0.26090  0.79908  0.33648  1.0000
  H   H31       1.0  0.24127  0.81870  0.33641  1.0000
  H   H32       1.0  0.18757  0.72387  0.33880  1.0000
  H   H33       1.0  0.16619  0.74516  0.33965  1.0000
  H   H34       1.0  0.16540  0.77929  0.19841  1.0000
  H   H35       1.0  0.12572  0.76439  0.20176  1.0000
  H   H36       1.0  0.19021  0.83285  0.33603  1.0000
  H   H37       1.0  0.26853  0.89127  0.19672  1.0000
  H   H38       1.0  0.28266  0.93088  0.19360  1.0000
  H   H39       1.0  0.37368  0.84274  0.19330  1.0000
  H   H40       1.0  0.33617  0.83638  0.19639  1.0000
  C   C76       1.0  0.78766  0.54911  0.33737  1.0000
  N   N9        1.0  0.79654  0.59744  0.33748  1.0000
  C   C77       1.0  0.79496  0.61627  0.33796  1.0000
  C   C78       1.0  0.77198  0.60897  0.33947  1.0000
  C   C79       1.0  0.76038  0.58578  0.33916  1.0000
  C   C80       1.0  0.81273  0.63899  0.33745  1.0000
  C   C81       1.0  0.86893  0.64587  0.33701  1.0000
  C   C82       1.0  0.85356  0.66816  0.33697  1.0000
  C   C83       1.0  0.86155  0.57859  0.33639  1.0000
  C   C84       1.0  0.85501  0.53188  0.25565  1.0000
  C   C85       1.0  0.85850  0.51337  0.25388  1.0000
  C   C86       1.0  0.91950  0.66622  0.25587  1.0000
  C   C87       1.0  0.94288  0.68101  0.25400  1.0000
  C   C88       1.0  0.80650  0.65596  0.33755  1.0000
  C   C89       1.0  0.79022  0.67594  0.26052  1.0000
  C   C90       1.0  0.79889  0.66122  0.25837  1.0000
  C   C91       1.0  0.73769  0.52696  0.25877  1.0000
  C   C92       1.0  0.71573  0.50840  0.26092  1.0000
  H   H41       1.0  0.70921  0.49963  0.20287  1.0000
  H   H42       1.0  0.74634  0.53128  0.19953  1.0000
  H   H43       1.0  0.80420  0.51259  0.33639  1.0000
  H   H44       1.0  0.74327  0.57600  0.33979  1.0000
  H   H45       1.0  0.76456  0.61867  0.34062  1.0000
  H   H46       1.0  0.79869  0.65359  0.19928  1.0000
  H   H47       1.0  0.78381  0.67838  0.20256  1.0000
  H   H48       1.0  0.85225  0.68233  0.33678  1.0000
  H   H49       1.0  0.91063  0.66243  0.19727  1.0000
  H   H50       1.0  0.95023  0.68790  0.19389  1.0000
  H   H51       1.0  0.86214  0.50880  0.19379  1.0000
  H   H52       1.0  0.85578  0.53994  0.19701  1.0000
  C   C93       1.0  0.44372  0.17958  0.33812  1.0000
  C   C94       1.0  0.45102  0.16390  0.33961  1.0000
  C   C95       1.0  0.47421  0.17550  0.33930  1.0000
  C   C96       1.0  0.52814  0.32402  0.25604  1.0000
  C   C97       1.0  0.54664  0.34602  0.25430  1.0000
  C   C98       1.0  0.39379  0.25418  0.25616  1.0000
  C   C99       1.0  0.37899  0.26276  0.25432  1.0000
  C   C100      1.0  0.38406  0.11518  0.26050  1.0000
  C   C101      1.0  0.39881  0.13857  0.25844  1.0000
  C   C102      1.0  0.53304  0.21163  0.25900  1.0000
  C   C103      1.0  0.55160  0.20824  0.26111  1.0000
  H   H53       1.0  0.56037  0.21048  0.20304  1.0000
  H   H54       1.0  0.52872  0.21596  0.19978  1.0000
  H   H55       1.0  0.54740  0.29251  0.33687  1.0000
  H   H56       1.0  0.48399  0.16816  0.34000  1.0000
  H   H57       1.0  0.40642  0.14602  0.19933  1.0000
  H   H58       1.0  0.38162  0.10635  0.20248  1.0000
  H   H59       1.0  0.37765  0.17081  0.33692  1.0000
  H   H60       1.0  0.39757  0.24908  0.19756  1.0000
  H   H61       1.0  0.37210  0.26322  0.19424  1.0000
  H   H62       1.0  0.55124  0.35423  0.19419  1.0000
  H   H63       1.0  0.52009  0.31673  0.19741  1.0000
  C   C104      1.0  0.78292  0.25700  0.33682  1.0000
  N   N10       1.0  0.81042  0.24957  0.33712  1.0000
  C   C105      1.0  0.82053  0.27231  0.33715  1.0000
  N   N11       1.0  0.85999  0.26344  0.33718  1.0000
  C   C106      1.0  0.88040  0.26502  0.33764  1.0000
  C   C107      1.0  0.89608  0.28800  0.33910  1.0000
  C   C108      1.0  0.88448  0.29960  0.33875  1.0000
  C   C109      1.0  0.88536  0.24726  0.33716  1.0000
  N   N12       1.0  0.84618  0.21381  0.33701  1.0000
  C   C110      1.0  0.83604  0.19105  0.33688  1.0000
  C   C111      1.0  0.87369  0.20642  0.33680  1.0000
  C   C112      1.0  0.77613  0.19843  0.33631  1.0000
  C   C113      1.0  0.77122  0.21618  0.33686  1.0000
  C   C114      1.0  0.73596  0.20499  0.25571  1.0000
  C   C115      1.0  0.71396  0.20149  0.25402  1.0000
  C   C116      1.0  0.70351  0.20339  0.33273  1.0000
  C   C117      1.0  0.80581  0.14048  0.25589  1.0000
  C   C118      1.0  0.79724  0.11710  0.25412  1.0000
  C   C119      1.0  0.90855  0.25349  0.33729  1.0000
  C   C120      1.0  0.95612  0.27107  0.34129  1.0000
  C   C121      1.0  0.94482  0.26973  0.26019  1.0000
  C   C122      1.0  0.92143  0.26110  0.25810  1.0000
  C   C123      1.0  0.84964  0.31183  0.33774  1.0000
  C   C124      1.0  0.84835  0.32229  0.25844  1.0000
  C   C125      1.0  0.85174  0.34425  0.26057  1.0000
  H   H64       1.0  0.84953  0.35078  0.20249  1.0000
  H   H65       1.0  0.84405  0.31366  0.19920  1.0000
  H   H66       1.0  0.76747  0.25577  0.33640  1.0000
  H   H67       1.0  0.81848  0.24151  0.33710  1.0000
  H   H68       1.0  0.89182  0.31671  0.33939  1.0000
  H   H69       1.0  0.91320  0.29543  0.34023  1.0000
  H   H70       1.0  0.91400  0.26128  0.19898  1.0000
  H   H71       1.0  0.95368  0.27616  0.20223  1.0000
  H   H72       1.0  0.88918  0.20773  0.33663  1.0000
  H   H73       1.0  0.81093  0.14935  0.19727  1.0000
  H   H74       1.0  0.79679  0.10975  0.19406  1.0000
  H   H75       1.0  0.70575  0.19786  0.19395  1.0000
  H   H76       1.0  0.74325  0.20422  0.19705  1.0000
  C   C126      1.0  0.21077  0.64646  0.27587  1.0000
  N   N13       1.0  0.21120  0.62697  0.27698  1.0000
  C   C127      1.0  0.22134  0.60087  0.33127  1.0000
  C   C128      1.0  0.23207  0.59645  0.25911  1.0000
  C   C129      1.0  0.23174  0.57567  0.25962  1.0000
  C   C130      1.0  0.22136  0.55966  0.32891  1.0000
  H   H77       1.0  0.24026  0.57267  0.21035  1.0000
  H   H78       1.0  0.20277  0.64922  0.22399  1.0000
  N   N14       1.0  0.24327  0.61145  0.19254  1.0000
  H   H79       1.0  0.24476  0.62625  0.19149  1.0000
  H   H80       1.0  0.25073  0.60802  0.14479  1.0000
  C   C131      1.0  0.41353  0.56520  0.27618  1.0000
  N   N15       1.0  0.43302  0.58512  0.27728  1.0000
  C   C132      1.0  0.45911  0.62135  0.33157  1.0000
  C   C133      1.0  0.46356  0.63651  0.25940  1.0000
  C   C134      1.0  0.48434  0.65696  0.25994  1.0000
  C   C135      1.0  0.50032  0.66259  0.32931  1.0000
  H   H81       1.0  0.48736  0.66848  0.21065  1.0000
  H   H82       1.0  0.41079  0.55444  0.22430  1.0000
  N   N16       1.0  0.44858  0.63271  0.19276  1.0000
  H   H83       1.0  0.43378  0.61939  0.19168  1.0000
  H   H84       1.0  0.45203  0.64360  0.14502  1.0000
  C   C136      1.0  0.49481  0.84925  0.27640  1.0000
  N   N17       1.0  0.47489  0.84881  0.27742  1.0000
  C   C137      1.0  0.43863  0.83865  0.33157  1.0000
  C   C138      1.0  0.42350  0.82794  0.25937  1.0000
  C   C139      1.0  0.40304  0.82825  0.25986  1.0000
  C   C140      1.0  0.39739  0.83862  0.32908  1.0000
  H   H85       1.0  0.39156  0.81977  0.21046  1.0000
  H   H86       1.0  0.50560  0.85727  0.22457  1.0000
  N   N18       1.0  0.42733  0.81676  0.19277  1.0000
  H   H87       1.0  0.44066  0.81529  0.19173  1.0000
  H   H88       1.0  0.41646  0.80932  0.14500  1.0000
  C   C141      1.0  0.86862  0.39413  0.27645  1.0000
  N   N19       1.0  0.86818  0.41361  0.27755  1.0000
  C   C142      1.0  0.85802  0.43970  0.33183  1.0000
  C   C143      1.0  0.84733  0.44414  0.25964  1.0000
  C   C144      1.0  0.84766  0.46493  0.26015  1.0000
  C   C145      1.0  0.85801  0.48092  0.32948  1.0000
  H   H89       1.0  0.83919  0.46795  0.21079  1.0000
  H   H90       1.0  0.87664  0.39138  0.22459  1.0000
  N   N20       1.0  0.83618  0.42917  0.19296  1.0000
  H   H91       1.0  0.83464  0.41434  0.19205  1.0000
  H   H92       1.0  0.82870  0.43259  0.14533  1.0000
  C   C146      1.0  0.66586  0.47539  0.27689  1.0000
  N   N21       1.0  0.64637  0.45547  0.27800  1.0000
  C   C147      1.0  0.62028  0.41922  0.33229  1.0000
  C   C148      1.0  0.61586  0.40408  0.26012  1.0000
  C   C149      1.0  0.59508  0.38363  0.26063  1.0000
  C   C150      1.0  0.57907  0.37799  0.32992  1.0000
  H   H93       1.0  0.59208  0.37212  0.21134  1.0000
  H   H94       1.0  0.66861  0.48616  0.22502  1.0000
  N   N22       1.0  0.63086  0.40789  0.19353  1.0000
  H   H95       1.0  0.64567  0.42121  0.19249  1.0000
  H   H96       1.0  0.62744  0.39701  0.14579  1.0000
  C   C151      1.0  0.58459  0.19136  0.27692  1.0000
  N   N23       1.0  0.60452  0.19180  0.27797  1.0000
  C   C152      1.0  0.64076  0.20194  0.33216  1.0000
  C   C153      1.0  0.65591  0.21265  0.25994  1.0000
  C   C154      1.0  0.67636  0.21232  0.26041  1.0000
  H   H97       1.0  0.68787  0.22083  0.21108  1.0000
  H   H98       1.0  0.57383  0.18335  0.22506  1.0000
  N   N24       1.0  0.65210  0.22384  0.19335  1.0000
  H   H99       1.0  0.63878  0.22532  0.19232  1.0000
  H   H100      1.0  0.66298  0.23128  0.14557  1.0000
  C   C155      1.0  0.99271  0.27901  0.27570  1.0000
  N   N25       1.0  0.01547  0.29075  0.27687  1.0000
  C   C156      1.0  0.05154  0.31743  0.33151  1.0000
  C   C157      1.0  0.06290  0.33225  0.25903  1.0000
  C   C158      1.0  0.08671  0.34390  0.25963  1.0000
  C   C159      1.0  0.09922  0.34132  0.32925  1.0000
  H   H101      1.0  0.09510  0.35534  0.20998  1.0000
  H   H102      1.0  0.98492  0.26829  0.22350  1.0000
  N   N26       1.0  0.05208  0.33642  0.19203  1.0000
  H   H103      1.0  0.03585  0.32963  0.19092  1.0000
  H   H104      1.0  0.06037  0.34693  0.14411  1.0000
  C   C160      1.0  0.78095  0.71456  0.27601  1.0000
  N   N27       1.0  0.76921  0.72559  0.27722  1.0000
  C   C161      1.0  0.74253  0.73498  0.33194  1.0000
  C   C162      1.0  0.72773  0.73153  0.25944  1.0000
  C   C163      1.0  0.71610  0.74372  0.26001  1.0000
  C   C164      1.0  0.71865  0.75878  0.32972  1.0000
  H   H105      1.0  0.70466  0.74066  0.21037  1.0000
  H   H106      1.0  0.79168  0.71750  0.22380  1.0000
  N   N28       1.0  0.72359  0.71656  0.19237  1.0000
  H   H107      1.0  0.73032  0.70706  0.19145  1.0000
  H   H108      1.0  0.71305  0.71430  0.14458  1.0000
  C   C165      1.0  0.34542  0.06730  0.27585  1.0000
  N   N29       1.0  0.33439  0.04453  0.27698  1.0000
  C   C166      1.0  0.32497  0.00844  0.33155  1.0000
  C   C167      1.0  0.32846  0.99711  0.25905  1.0000
  C   C168      1.0  0.31628  0.97329  0.25954  1.0000
  C   C169      1.0  0.30119  0.96076  0.32918  1.0000
  H   H109      1.0  0.31938  0.96493  0.20996  1.0000
  H   H110      1.0  0.34251  0.07510  0.22364  1.0000
  N   N30       1.0  0.34348  0.00796  0.19211  1.0000
  H   H111      1.0  0.35293  0.02419  0.19108  1.0000
  H   H112      1.0  0.34572  0.99968  0.14416  1.0000
  C   C170      1.0  0.08668  0.76155  0.27528  1.0000
  N   N31       1.0  0.06391  0.74982  0.27653  1.0000
  C   C171      1.0  0.02784  0.72315  0.33130  1.0000
  C   C172      1.0  0.01648  0.70833  0.25887  1.0000
  C   C173      1.0  0.99267  0.69670  0.25952  1.0000
  C   C174      1.0  0.98016  0.69927  0.32924  1.0000
  H   H113      1.0  0.98428  0.68523  0.20999  1.0000
  H   H114      1.0  0.09447  0.77227  0.22303  1.0000
  N   N32       1.0  0.02731  0.70416  0.19185  1.0000
  H   H115      1.0  0.04353  0.71094  0.19070  1.0000
  H   H116      1.0  0.01902  0.69364  0.14395  1.0000
  C   C175      1.0  0.29842  0.32600  0.27576  1.0000
  N   N33       1.0  0.31016  0.31497  0.27700  1.0000
  C   C176      1.0  0.33683  0.30558  0.33173  1.0000
  C   C177      1.0  0.35167  0.30905  0.25931  1.0000
  C   C178      1.0  0.36332  0.29688  0.25998  1.0000
  C   C179      1.0  0.36072  0.28179  0.32963  1.0000
  H   H117      1.0  0.37477  0.29995  0.21037  1.0000
  H   H118      1.0  0.28771  0.32307  0.22354  1.0000
  N   N34       1.0  0.35585  0.32404  0.19228  1.0000
  H   H119      1.0  0.34905  0.33348  0.19112  1.0000
  H   H120      1.0  0.36638  0.32627  0.14439  1.0000
  C   C180      1.0  0.73397  0.97331  0.27587  1.0000
  N   N35       1.0  0.74500  0.99607  0.27707  1.0000
  C   C181      1.0  0.75438  0.03214  0.33177  1.0000
  C   C182      1.0  0.75093  0.04350  0.25928  1.0000
  C   C183      1.0  0.76312  0.06731  0.25985  1.0000
  C   C184      1.0  0.77818  0.07982  0.32955  1.0000
  H   H121      1.0  0.76006  0.07570  0.21022  1.0000
  H   H122      1.0  0.73691  0.96552  0.22366  1.0000
  N   N36       1.0  0.73597  0.03267  0.19222  1.0000
  H   H123      1.0  0.72647  0.01645  0.19130  1.0000
  H   H124      1.0  0.73371  0.04097  0.14444  1.0000
  C   C185      1.0  0.29646  0.51378  0.33713  1.0000
  C   C186      1.0  0.25885  0.49148  0.33669  1.0000
  C   C187      1.0  0.30326  0.46199  0.33763  1.0000
  C   C188      1.0  0.24336  0.39471  0.33690  1.0000
  C   C189      1.0  0.20571  0.37242  0.33686  1.0000
  C   C190      1.0  0.19403  0.40158  0.33655  1.0000
  C   C191      1.0  0.19899  0.42431  0.33610  1.0000
  N   N37       1.0  0.21940  0.44314  0.33658  1.0000
  C   C192      1.0  0.19490  0.45480  0.33497  1.0000
  C   C193      1.0  0.18331  0.43161  0.33460  1.0000
  C   C194      1.0  0.22760  0.53218  0.41320  1.0000
  C   C195      1.0  0.23102  0.51362  0.41532  1.0000
  C   C196      1.0  0.17084  0.38462  0.33640  1.0000
  C   C197      1.0  0.12327  0.35463  0.33236  1.0000
  C   C198      1.0  0.13457  0.36462  0.41344  1.0000
  C   C199      1.0  0.15796  0.37935  0.41558  1.0000
  C   C200      1.0  0.27356  0.37436  0.41794  1.0000
  C   C201      1.0  0.28215  0.35955  0.41975  1.0000
  C   C202      1.0  0.34341  0.50872  0.41841  1.0000
  C   C203      1.0  0.36541  0.52722  0.42016  1.0000
  H   H125      1.0  0.37361  0.53180  0.48026  1.0000
  H   H126      1.0  0.33611  0.50065  0.47704  1.0000
  H   H127      1.0  0.31191  0.52800  0.33763  1.0000
  H   H128      1.0  0.26846  0.37813  0.47656  1.0000
  H   H129      1.0  0.28259  0.35265  0.47984  1.0000
  H   H130      1.0  0.19023  0.35825  0.33697  1.0000
  H   H131      1.0  0.18756  0.46457  0.33427  1.0000
  H   H132      1.0  0.16619  0.42191  0.33341  1.0000
  H   H133      1.0  0.16539  0.38695  0.47471  1.0000
  H   H134      1.0  0.12572  0.36216  0.47145  1.0000
  H   H135      1.0  0.23531  0.50928  0.47458  1.0000
  H   H136      1.0  0.22983  0.54094  0.47126  1.0000
  C   C204      1.0  0.54620  0.78358  0.33747  1.0000
  C   C205      1.0  0.56850  0.76827  0.33709  1.0000
  N   N38       1.0  0.58113  0.79101  0.33715  1.0000
  C   C206      1.0  0.57531  0.82439  0.33749  1.0000
  C   C207      1.0  0.59798  0.84215  0.33804  1.0000
  C   C208      1.0  0.66527  0.84954  0.33726  1.0000
  N   N39       1.0  0.65265  0.82678  0.33715  1.0000
  C   C209      1.0  0.68756  0.83418  0.33724  1.0000
  C   C210      1.0  0.65840  0.79334  0.33699  1.0000
  C   C211      1.0  0.63567  0.77557  0.33654  1.0000
  N   N40       1.0  0.61683  0.77715  0.33701  1.0000
  C   C212      1.0  0.60518  0.74099  0.33543  1.0000
  C   C213      1.0  0.62837  0.75259  0.33508  1.0000
  C   C214      1.0  0.57532  0.75181  0.33679  1.0000
  C   C215      1.0  0.55810  0.72875  0.33646  1.0000
  C   C216      1.0  0.52041  0.68411  0.33240  1.0000
  C   C217      1.0  0.52776  0.69633  0.41358  1.0000
  C   C218      1.0  0.54634  0.71828  0.41577  1.0000
  C   C219      1.0  0.67536  0.78712  0.33685  1.0000
  C   C220      1.0  0.70535  0.76953  0.33283  1.0000
  C   C221      1.0  0.69536  0.77086  0.41392  1.0000
  C   C222      1.0  0.68060  0.77948  0.41602  1.0000
  C   C223      1.0  0.68561  0.90011  0.41825  1.0000
  C   C224      1.0  0.70041  0.92349  0.42000  1.0000
  C   C225      1.0  0.70533  0.93672  0.34147  1.0000
  C   C226      1.0  0.55810  0.83024  0.33780  1.0000
  C   C227      1.0  0.55122  0.83556  0.41875  1.0000
  C   C228      1.0  0.52040  0.83718  0.34176  1.0000
  C   C229      1.0  0.53272  0.83906  0.42046  1.0000
  H   H137      1.0  0.52812  0.84267  0.48056  1.0000
  H   H138      1.0  0.55926  0.83632  0.47739  1.0000
  H   H139      1.0  0.53198  0.78480  0.33793  1.0000
  H   H140      1.0  0.59726  0.79908  0.33718  1.0000
  H   H141      1.0  0.63652  0.81871  0.33720  1.0000
  H   H142      1.0  0.68185  0.89124  0.47687  1.0000
  H   H143      1.0  0.70732  0.93085  0.48006  1.0000
  H   H144      1.0  0.70173  0.83287  0.33739  1.0000
  H   H145      1.0  0.59541  0.72388  0.33480  1.0000
  H   H146      1.0  0.63807  0.74517  0.33393  1.0000
  H   H147      1.0  0.67299  0.77932  0.47516  1.0000
  H   H148      1.0  0.69777  0.76443  0.47189  1.0000
  H   H149      1.0  0.55064  0.72693  0.47498  1.0000
  H   H150      1.0  0.51899  0.68979  0.47164  1.0000
  C   C230      1.0  0.21783  0.75673  0.33727  1.0000
  C   C231      1.0  0.28441  0.86099  0.33585  1.0000
  C   C232      1.0  0.31899  0.86508  0.33486  1.0000
  C   C233      1.0  0.30739  0.87668  0.33448  1.0000
  C   C234      1.0  0.36362  0.83232  0.41324  1.0000
  C   C235      1.0  0.34166  0.82895  0.41532  1.0000
  C   C236      1.0  0.28910  0.92538  0.41330  1.0000
  C   C237      1.0  0.28043  0.90199  0.41540  1.0000
  C   C238      1.0  0.15986  0.78640  0.41751  1.0000
  C   C239      1.0  0.13648  0.77783  0.41930  1.0000
  C   C240      1.0  0.22439  0.71656  0.41806  1.0000
  C   C241      1.0  0.22090  0.69456  0.41983  1.0000
  H   H151      1.0  0.21725  0.68634  0.47992  1.0000
  H   H152      1.0  0.22361  0.72385  0.47668  1.0000
  H   H153      1.0  0.27518  0.74807  0.33727  1.0000
  H   H154      1.0  0.16872  0.79152  0.47611  1.0000
  H   H155      1.0  0.12912  0.77737  0.47938  1.0000
  H   H156      1.0  0.22711  0.86976  0.33663  1.0000
  H   H157      1.0  0.33611  0.87242  0.33432  1.0000
  H   H158      1.0  0.31481  0.89379  0.33337  1.0000
  H   H159      1.0  0.28060  0.89455  0.47450  1.0000
  H   H160      1.0  0.29548  0.93422  0.47131  1.0000
  H   H161      1.0  0.33300  0.82462  0.47452  1.0000
  H   H162      1.0  0.37013  0.83011  0.47135  1.0000
  C   C242      1.0  0.78291  0.52681  0.33766  1.0000
  C   C243      1.0  0.80298  0.52681  0.33690  1.0000
  C   C244      1.0  0.82052  0.54911  0.33722  1.0000
  N   N41       1.0  0.81041  0.56174  0.33732  1.0000
  C   C245      1.0  0.77121  0.55592  0.33773  1.0000
  C   C246      1.0  0.77612  0.57859  0.33825  1.0000
  C   C247      1.0  0.83602  0.64587  0.33734  1.0000
  N   N42       1.0  0.84617  0.63326  0.33723  1.0000
  C   C248      1.0  0.87367  0.66816  0.33719  1.0000
  C   C249      1.0  0.88535  0.63900  0.33697  1.0000
  C   C250      1.0  0.88039  0.61627  0.33657  1.0000
  N   N43       1.0  0.85998  0.59744  0.33707  1.0000
  C   C251      1.0  0.88448  0.58578  0.33551  1.0000
  C   C252      1.0  0.89607  0.60897  0.33512  1.0000
  C   C253      1.0  0.84379  0.55592  0.33693  1.0000
  C   C254      1.0  0.84964  0.53870  0.33659  1.0000
  C   C255      1.0  0.85658  0.50100  0.33255  1.0000
  C   C256      1.0  0.85171  0.50837  0.41374  1.0000
  C   C257      1.0  0.84833  0.52695  0.41590  1.0000
  C   C258      1.0  0.90854  0.65596  0.33674  1.0000
  C   C259      1.0  0.95611  0.68594  0.33248  1.0000
  C   C260      1.0  0.94482  0.67596  0.41361  1.0000
  C   C261      1.0  0.92142  0.66123  0.41586  1.0000
  C   C262      1.0  0.80581  0.66623  0.41835  1.0000
  C   C263      1.0  0.79722  0.68103  0.42011  1.0000
  C   C264      1.0  0.78891  0.68594  0.34159  1.0000
  C   C265      1.0  0.74814  0.53870  0.33808  1.0000
  C   C266      1.0  0.73595  0.53186  0.41904  1.0000
  C   C267      1.0  0.70351  0.50100  0.34214  1.0000
  C   C268      1.0  0.71395  0.51335  0.42082  1.0000
  H   H163      1.0  0.70574  0.50876  0.48093  1.0000
  H   H164      1.0  0.74324  0.53990  0.47768  1.0000
  H   H165      1.0  0.76747  0.51259  0.33815  1.0000
  H   H166      1.0  0.81847  0.57786  0.33737  1.0000
  H   H167      1.0  0.83810  0.61713  0.33731  1.0000
  H   H168      1.0  0.81089  0.66246  0.47698  1.0000
  H   H169      1.0  0.79676  0.68793  0.48018  1.0000
  H   H170      1.0  0.88916  0.68233  0.33727  1.0000
  H   H171      1.0  0.89182  0.57600  0.33491  1.0000
  H   H172      1.0  0.91319  0.61867  0.33395  1.0000
  H   H173      1.0  0.91399  0.65364  0.47502  1.0000
  H   H174      1.0  0.95367  0.67843  0.47158  1.0000
  H   H175      1.0  0.84400  0.53126  0.47513  1.0000
  H   H176      1.0  0.84949  0.49962  0.47182  1.0000
  C   C269      1.0  0.53318  0.25700  0.33808  1.0000
  C   C270      1.0  0.53318  0.27706  0.33737  1.0000
  C   C271      1.0  0.51088  0.27231  0.33765  1.0000
  N   N44       1.0  0.49825  0.24957  0.33769  1.0000
  C   C272      1.0  0.51088  0.23946  0.33775  1.0000
  C   C273      1.0  0.50407  0.21618  0.33802  1.0000
  C   C274      1.0  0.48140  0.19843  0.33846  1.0000
  N   N45       1.0  0.46255  0.20000  0.33770  1.0000
  C   C275      1.0  0.42099  0.17462  0.33759  1.0000
  C   C276      1.0  0.41411  0.19104  0.33753  1.0000
  N   N46       1.0  0.42673  0.21380  0.33747  1.0000
  C   C277      1.0  0.41411  0.22394  0.33728  1.0000
  C   C278      1.0  0.39182  0.20640  0.33744  1.0000
  C   C279      1.0  0.39183  0.18629  0.33718  1.0000
  C   C280      1.0  0.42098  0.24724  0.33725  1.0000
  C   C281      1.0  0.44371  0.26501  0.33688  1.0000
  N   N47       1.0  0.46254  0.26343  0.33742  1.0000
  C   C282      1.0  0.48139  0.28385  0.33673  1.0000
  C   C283      1.0  0.47420  0.29959  0.33585  1.0000
  C   C284      1.0  0.45101  0.28799  0.33540  1.0000
  C   C285      1.0  0.50406  0.28876  0.33731  1.0000
  C   C286      1.0  0.52128  0.31183  0.33699  1.0000
  C   C287      1.0  0.55898  0.35647  0.33298  1.0000
  C   C288      1.0  0.55157  0.34425  0.41419  1.0000
  C   C289      1.0  0.53302  0.32228  0.41630  1.0000
  C   C290      1.0  0.40402  0.25347  0.33701  1.0000
  C   C291      1.0  0.37404  0.27106  0.33282  1.0000
  C   C292      1.0  0.38400  0.26973  0.41395  1.0000
  C   C293      1.0  0.39873  0.26107  0.41616  1.0000
  C   C294      1.0  0.40403  0.15143  0.33763  1.0000
  C   C295      1.0  0.39373  0.14045  0.41840  1.0000
  C   C296      1.0  0.37893  0.11706  0.42010  1.0000
  C   C297      1.0  0.37404  0.10386  0.34153  1.0000
  C   C298      1.0  0.52129  0.21034  0.33834  1.0000
  C   C299      1.0  0.52812  0.20499  0.41927  1.0000
  C   C300      1.0  0.55898  0.20339  0.34229  1.0000
  C   C301      1.0  0.54662  0.20149  0.42098  1.0000
  H   H177      1.0  0.55121  0.19786  0.48108  1.0000
  H   H178      1.0  0.52006  0.20422  0.47791  1.0000
  H   H179      1.0  0.54740  0.25578  0.33858  1.0000
  H   H180      1.0  0.48212  0.24150  0.33767  1.0000
  H   H181      1.0  0.44286  0.22187  0.33755  1.0000
  H   H182      1.0  0.44132  0.14679  0.34074  1.0000
  H   H183      1.0  0.39748  0.14929  0.47705  1.0000
  H   H184      1.0  0.37201  0.10969  0.48014  1.0000
  H   H185      1.0  0.37765  0.20771  0.33749  1.0000
  H   H186      1.0  0.48398  0.31670  0.33518  1.0000
  H   H187      1.0  0.44131  0.29541  0.33418  1.0000
  H   H188      1.0  0.40631  0.26123  0.47533  1.0000
  H   H189      1.0  0.38153  0.27611  0.47193  1.0000
  H   H190      1.0  0.52867  0.31364  0.47555  1.0000
  H   H191      1.0  0.56033  0.35077  0.47225  1.0000
  C   C302      1.0  0.80298  0.27706  0.33753  1.0000
  C   C303      1.0  0.78767  0.23946  0.33713  1.0000
  C   C304      1.0  0.84380  0.28877  0.33741  1.0000
  C   C305      1.0  0.86156  0.28386  0.33792  1.0000
  C   C306      1.0  0.86894  0.22396  0.33710  1.0000
  C   C307      1.0  0.85358  0.18631  0.33709  1.0000
  C   C308      1.0  0.81274  0.17463  0.33687  1.0000
  C   C309      1.0  0.79498  0.17959  0.33647  1.0000
  N   N48       1.0  0.79655  0.20000  0.33697  1.0000
  C   C310      1.0  0.76040  0.17550  0.33545  1.0000
  C   C311      1.0  0.77199  0.16391  0.33505  1.0000
  C   C312      1.0  0.74815  0.21033  0.33662  1.0000
  C   C313      1.0  0.71575  0.20825  0.41388  1.0000
  C   C314      1.0  0.73770  0.21162  0.41597  1.0000
  C   C315      1.0  0.80652  0.15144  0.33671  1.0000
  C   C316      1.0  0.78893  0.10387  0.33267  1.0000
  C   C317      1.0  0.79026  0.11517  0.41377  1.0000
  C   C318      1.0  0.79889  0.13856  0.41588  1.0000
  C   C319      1.0  0.91951  0.25418  0.41809  1.0000
  C   C320      1.0  0.94289  0.26276  0.41983  1.0000
  C   C321      1.0  0.85497  0.32401  0.41869  1.0000
  C   C322      1.0  0.85657  0.35647  0.34176  1.0000
  C   C323      1.0  0.85847  0.34601  0.42044  1.0000
  H   H192      1.0  0.86208  0.35422  0.48054  1.0000
  H   H193      1.0  0.85574  0.31672  0.47732  1.0000
  H   H194      1.0  0.80420  0.29251  0.33800  1.0000
  H   H195      1.0  0.83812  0.22188  0.33705  1.0000
  H   H196      1.0  0.91064  0.24907  0.47671  1.0000
  H   H197      1.0  0.95024  0.26320  0.47989  1.0000
  H   H198      1.0  0.85227  0.17083  0.33723  1.0000
  H   H199      1.0  0.74328  0.16816  0.33486  1.0000
  H   H200      1.0  0.76458  0.14679  0.33389  1.0000
  H   H201      1.0  0.79872  0.14599  0.47502  1.0000
  H   H202      1.0  0.78383  0.10632  0.47173  1.0000
  H   H203      1.0  0.74635  0.21597  0.47516  1.0000
  H   H204      1.0  0.70922  0.21048  0.47196  1.0000
  C   C324      1.0  0.22138  0.66259  0.34424  1.0000
  C   C325      1.0  0.22133  0.62135  0.34194  1.0000
  C   C326      1.0  0.23204  0.63650  0.41410  1.0000
  C   C327      1.0  0.23173  0.65695  0.41354  1.0000
  H   H205      1.0  0.24021  0.66846  0.46288  1.0000
  C   C328      1.0  0.21074  0.56518  0.39727  1.0000
  N   N49       1.0  0.21117  0.58510  0.39618  1.0000
  H   H206      1.0  0.20271  0.55441  0.44912  1.0000
  N   N50       1.0  0.24321  0.63268  0.48072  1.0000
  H   H207      1.0  0.25065  0.64356  0.52847  1.0000
  H   H208      1.0  0.24468  0.61935  0.48182  1.0000
  C   C329      1.0  0.39739  0.55967  0.34454  1.0000
  C   C330      1.0  0.43863  0.60088  0.34222  1.0000
  C   C331      1.0  0.42346  0.59644  0.41438  1.0000
  C   C332      1.0  0.40302  0.57566  0.41389  1.0000
  H   H209      1.0  0.39150  0.57265  0.46320  1.0000
  C   C333      1.0  0.49478  0.64645  0.39767  1.0000
  N   N51       1.0  0.47485  0.62696  0.39654  1.0000
  H   H210      1.0  0.50552  0.64920  0.44957  1.0000
  N   N52       1.0  0.42728  0.61143  0.48103  1.0000
  H   H211      1.0  0.41636  0.60801  0.52864  1.0000
  H   H212      1.0  0.44056  0.62625  0.48191  1.0000
  C   C334      1.0  0.50032  0.83863  0.34479  1.0000
  C   C335      1.0  0.45910  0.83865  0.34230  1.0000
  C   C336      1.0  0.46351  0.82791  0.41447  1.0000
  C   C337      1.0  0.48428  0.82823  0.41398  1.0000
  H   H213      1.0  0.48728  0.81973  0.46334  1.0000
  C   C338      1.0  0.41350  0.84922  0.39752  1.0000
  N   N53       1.0  0.43299  0.84879  0.39648  1.0000
  H   H214      1.0  0.41074  0.85723  0.44936  1.0000
  N   N54       1.0  0.44849  0.81672  0.48103  1.0000
  H   H215      1.0  0.45191  0.80926  0.52878  1.0000
  H   H216      1.0  0.43369  0.81524  0.48206  1.0000
  C   C339      1.0  0.85800  0.37799  0.34483  1.0000
  C   C340      1.0  0.85802  0.41922  0.34248  1.0000
  C   C341      1.0  0.84730  0.40406  0.41465  1.0000
  C   C342      1.0  0.84762  0.38361  0.41412  1.0000
  H   H217      1.0  0.83913  0.37211  0.46346  1.0000
  C   C343      1.0  0.86859  0.47538  0.39788  1.0000
  N   N55       1.0  0.86815  0.45545  0.39679  1.0000
  H   H218      1.0  0.87660  0.48614  0.44976  1.0000
  N   N56       1.0  0.83611  0.40787  0.48129  1.0000
  H   H219      1.0  0.82864  0.39698  0.52899  1.0000
  H   H220      1.0  0.83461  0.42118  0.48229  1.0000
  C   C344      1.0  0.68199  0.48091  0.34524  1.0000
  C   C345      1.0  0.64075  0.43970  0.34295  1.0000
  C   C346      1.0  0.65590  0.44413  0.41509  1.0000
  C   C347      1.0  0.67635  0.46490  0.41453  1.0000
  H   H221      1.0  0.68786  0.46792  0.46385  1.0000
  C   C348      1.0  0.58458  0.39412  0.39829  1.0000
  N   N57       1.0  0.60450  0.41361  0.39721  1.0000
  H   H222      1.0  0.57380  0.39137  0.45015  1.0000
  N   N58       1.0  0.65208  0.42914  0.48170  1.0000
  H   H223      1.0  0.66296  0.43257  0.52943  1.0000
  H   H224      1.0  0.63876  0.41434  0.48279  1.0000
  C   C349      1.0  0.57907  0.20197  0.34531  1.0000
  C   C350      1.0  0.62028  0.20194  0.34287  1.0000
  C   C351      1.0  0.61584  0.21265  0.41507  1.0000
  C   C352      1.0  0.59506  0.21231  0.41462  1.0000
  H   H225      1.0  0.59205  0.22081  0.46395  1.0000
  C   C353      1.0  0.68200  0.20197  0.32973  1.0000
  C   C354      1.0  0.66587  0.19136  0.39814  1.0000
  N   N59       1.0  0.64637  0.19180  0.39709  1.0000
  H   H226      1.0  0.66862  0.18335  0.45002  1.0000
  N   N60       1.0  0.63083  0.22382  0.48169  1.0000
  H   H227      1.0  0.62742  0.23131  0.52932  1.0000
  H   H228      1.0  0.64566  0.22536  0.48253  1.0000
  C   C355      1.0  0.98017  0.28179  0.34440  1.0000
  C   C356      1.0  0.02785  0.30559  0.34212  1.0000
  C   C357      1.0  0.01649  0.30904  0.41463  1.0000
  C   C358      1.0  0.99268  0.29688  0.41403  1.0000
  H   H229      1.0  0.98430  0.29994  0.46369  1.0000
  C   C359      1.0  0.08668  0.32599  0.39794  1.0000
  N   N61       1.0  0.06391  0.31496  0.39675  1.0000
  H   H230      1.0  0.09447  0.32305  0.45012  1.0000
  N   N62       1.0  0.02732  0.32403  0.48163  1.0000
  H   H231      1.0  0.01903  0.32625  0.52957  1.0000
  H   H232      1.0  0.04355  0.33347  0.48273  1.0000
  C   C360      1.0  0.77816  0.69924  0.34471  1.0000
  C   C361      1.0  0.75437  0.72313  0.34250  1.0000
  C   C362      1.0  0.75091  0.70832  0.41502  1.0000
  C   C363      1.0  0.76309  0.69669  0.41443  1.0000
  H   H233      1.0  0.76003  0.68524  0.46407  1.0000
  C   C364      1.0  0.73396  0.76156  0.39841  1.0000
  N   N63       1.0  0.74498  0.74981  0.39720  1.0000
  H   H234      1.0  0.73689  0.77228  0.45060  1.0000
  N   N64       1.0  0.73593  0.70417  0.48210  1.0000
  H   H235      1.0  0.73369  0.69365  0.53000  1.0000
  H   H236      1.0  0.72647  0.71094  0.48314  1.0000
  C   C365      1.0  0.36071  0.07981  0.34460  1.0000
  C   C366      1.0  0.33681  0.03213  0.34222  1.0000
  C   C367      1.0  0.35161  0.04346  0.41477  1.0000
  C   C368      1.0  0.36325  0.06727  0.41425  1.0000
  H   H237      1.0  0.37469  0.07564  0.46391  1.0000
  C   C369      1.0  0.29836  0.97328  0.39786  1.0000
  N   N65       1.0  0.31011  0.99604  0.39673  1.0000
  H   H238      1.0  0.28762  0.96547  0.45000  1.0000
  N   N66       1.0  0.35574  0.03261  0.48177  1.0000
  H   H239      1.0  0.36623  0.04088  0.52974  1.0000
  H   H240      1.0  0.34894  0.01638  0.48283  1.0000
  C   C370      1.0  0.09921  0.75877  0.34396  1.0000
  C   C371      1.0  0.05153  0.73499  0.34184  1.0000
  C   C372      1.0  0.06288  0.73153  0.41433  1.0000
  C   C373      1.0  0.08669  0.74372  0.41373  1.0000
  H   H241      1.0  0.09507  0.74064  0.46334  1.0000
  C   C374      1.0  0.99270  0.71459  0.39788  1.0000
  N   N67       1.0  0.01547  0.72562  0.39660  1.0000
  H   H242      1.0  0.98491  0.71753  0.45011  1.0000
  N   N68       1.0  0.05204  0.71657  0.48143  1.0000
  H   H243      1.0  0.06033  0.71430  0.52922  1.0000
  H   H244      1.0  0.03582  0.70707  0.48236  1.0000
  C   C375      1.0  0.30119  0.34131  0.34442  1.0000
  C   C376      1.0  0.32499  0.31742  0.34228  1.0000
  C   C377      1.0  0.32843  0.33223  0.41476  1.0000
  C   C378      1.0  0.31626  0.34388  0.41410  1.0000
  H   H245      1.0  0.31932  0.35532  0.46374  1.0000
  C   C379      1.0  0.34538  0.27900  0.39828  1.0000
  N   N69       1.0  0.33435  0.29074  0.39701  1.0000
  H   H246      1.0  0.34243  0.26826  0.45047  1.0000
  N   N70       1.0  0.34341  0.33639  0.48179  1.0000
  H   H247      1.0  0.34562  0.34690  0.52971  1.0000
  H   H248      1.0  0.35284  0.32960  0.48294  1.0000
  C   C380      1.0  0.71865  0.96077  0.34458  1.0000
  C   C381      1.0  0.74254  0.00845  0.34234  1.0000
  C   C382      1.0  0.72772  0.99709  0.41485  1.0000
  C   C383      1.0  0.71609  0.97328  0.41427  1.0000
  H   H249      1.0  0.70463  0.96489  0.46391  1.0000
  C   C384      1.0  0.78096  0.06728  0.39822  1.0000
  N   N71       1.0  0.76922  0.04451  0.39701  1.0000
  H   H250      1.0  0.79169  0.07507  0.45041  1.0000
  N   N72       1.0  0.72356  0.00792  0.48191  1.0000
  H   H251      1.0  0.71306  0.99963  0.52986  1.0000
  H   H252      1.0  0.73035  0.02415  0.48301  1.0000
