data_image0
_chemical_formula_structural       C2NC2ONH2C2NC2ONH2NCHNCHC2NC2ONH2C2NC2ONH2NCHNCHC2NC2ONH2C2NC2ONH2C2NC2ONH2C2NC2ONH2NCHNCHC2NC2ONH2C2NC2ONH2NCHNCHC2NC2ONH2C2NC2ONH2NCHNCHC2NC2ONH2C2NC2ONH2CNCNCNCNCNCNCNCNCNCNCNCNCNCNCNCNCNCNCNCNCNCNCNCNCNCNCNCNCNCNCNCNCNCNCNCNCNCNCNCNCNCNCNCNCNCNCNCN2CHNCHC2NC2ONH2C2NC2ONH2NCHNCHC2NC2ONH2C2NC2ONH2NCHNCHNCHNCHC2NC2ONH2C2NC2ONH2NCHNCHC2NC2ONH2C2NC2ONH2NCHNCHC2NC2ONH2C2NC2ONH2NCHNCH
_chemical_formula_sum              "C168 N120 O24 H72"
_cell_length_a       43.698
_cell_length_b       34.2658
_cell_length_c       14.8509
_cell_angle_alpha    90
_cell_angle_beta     90
_cell_angle_gamma    90

_space_group_name_H-M_alt    "P 1"
_space_group_IT_number       1

loop_
  _space_group_symop_operation_xyz
  'x, y, z'

loop_
  _atom_site_type_symbol
  _atom_site_label
  _atom_site_symmetry_multiplicity
  _atom_site_fract_x
  _atom_site_fract_y
  _atom_site_fract_z
  _atom_site_occupancy
  C   C1        1.0  0.00551  0.96444  0.34043  1.0000
  C   C2        1.0  0.00275  0.04784  0.34658  1.0000
  N   N1        1.0  0.02925  0.02780  0.33331  1.0000
  C   C3        1.0  0.03215  0.98813  0.32910  1.0000
  C   C4        1.0  0.06185  0.97453  0.30849  1.0000
  O   O1        1.0  0.08597  0.99133  0.35052  1.0000
  N   N2        1.0  0.06756  0.95219  0.23535  1.0000
  H   H1        1.0  0.05113  0.94314  0.19632  1.0000
  H   H2        1.0  0.08852  0.94588  0.21869  1.0000
  C   C5        1.0  0.50548  0.46423  0.33965  1.0000
  C   C6        1.0  0.50281  0.54764  0.34571  1.0000
  N   N3        1.0  0.52930  0.52755  0.33261  1.0000
  C   C7        1.0  0.53216  0.48787  0.32842  1.0000
  C   C8        1.0  0.56186  0.47420  0.30820  1.0000
  O   O2        1.0  0.58598  0.49109  0.35000  1.0000
  N   N4        1.0  0.56766  0.45180  0.23520  1.0000
  H   H3        1.0  0.55127  0.44278  0.19598  1.0000
  H   H4        1.0  0.58864  0.44558  0.21861  1.0000
  N   N5        1.0  0.08333  0.23557  0.34131  1.0000
  C   C9        1.0  0.05706  0.21463  0.33807  1.0000
  H   H5        1.0  0.03701  0.22932  0.32758  1.0000
  N   N6        1.0  0.92310  0.77696  0.34141  1.0000
  C   C10       1.0  0.94939  0.79783  0.33781  1.0000
  H   H6        1.0  0.96937  0.78304  0.32698  1.0000
  C   C11       1.0  0.89423  0.22079  0.34625  1.0000
  C   C12       1.0  0.94816  0.17378  0.35060  1.0000
  N   N7        1.0  0.91972  0.15854  0.33649  1.0000
  C   C13       1.0  0.89300  0.17956  0.33323  1.0000
  C   C14       1.0  0.86620  0.15834  0.31303  1.0000
  O   O3        1.0  0.86243  0.12292  0.35182  1.0000
  N   N8        1.0  0.84796  0.16754  0.24262  1.0000
  H   H7        1.0  0.85221  0.18998  0.20444  1.0000
  H   H8        1.0  0.83125  0.15031  0.22552  1.0000
  C   C15       1.0  0.11277  0.79151  0.34417  1.0000
  C   C16       1.0  0.05853  0.83782  0.34900  1.0000
  N   N9        1.0  0.08681  0.85336  0.33399  1.0000
  C   C17       1.0  0.11369  0.83270  0.33044  1.0000
  C   C18       1.0  0.14024  0.85423  0.30920  1.0000
  O   O4        1.0  0.14348  0.89024  0.34545  1.0000
  N   N10       1.0  0.15868  0.84471  0.23945  1.0000
  H   H9        1.0  0.15465  0.82190  0.20223  1.0000
  H   H10       1.0  0.17505  0.86225  0.22116  1.0000
  N   N11       1.0  0.58351  0.73534  0.34022  1.0000
  C   C19       1.0  0.55721  0.71444  0.33831  1.0000
  H   H11       1.0  0.53710  0.72921  0.32964  1.0000
  N   N12       1.0  0.42295  0.27678  0.34063  1.0000
  C   C20       1.0  0.44927  0.29762  0.33846  1.0000
  H   H12       1.0  0.46932  0.28273  0.32971  1.0000
  C   C21       1.0  0.39458  0.72092  0.34706  1.0000
  C   C22       1.0  0.44844  0.67380  0.34949  1.0000
  N   N13       1.0  0.41984  0.65851  0.33875  1.0000
  C   C23       1.0  0.39312  0.67957  0.33650  1.0000
  C   C24       1.0  0.36606  0.65823  0.32019  1.0000
  O   O5        1.0  0.36286  0.62300  0.36029  1.0000
  N   N14       1.0  0.34658  0.66728  0.25261  1.0000
  H   H13       1.0  0.35015  0.68961  0.21351  1.0000
  H   H14       1.0  0.32957  0.65002  0.23836  1.0000
  C   C25       1.0  0.61240  0.29092  0.34508  1.0000
  C   C26       1.0  0.55825  0.33739  0.34827  1.0000
  N   N15       1.0  0.58670  0.35297  0.33642  1.0000
  C   C27       1.0  0.61355  0.33225  0.33378  1.0000
  C   C28       1.0  0.64037  0.35392  0.31628  1.0000
  O   O6        1.0  0.64312  0.38972  0.35396  1.0000
  N   N16       1.0  0.65997  0.34462  0.24916  1.0000
  H   H15       1.0  0.65659  0.32194  0.21100  1.0000
  H   H16       1.0  0.67665  0.36219  0.23364  1.0000
  C   C29       1.0  0.36345  0.15593  0.32964  1.0000
  C   C30       1.0  0.38259  0.07789  0.33624  1.0000
  N   N17       1.0  0.35530  0.08805  0.29978  1.0000
  C   C31       1.0  0.34445  0.12530  0.29608  1.0000
  C   C32       1.0  0.31656  0.13006  0.24907  1.0000
  O   O7        1.0  0.29429  0.10313  0.26136  1.0000
  N   N18       1.0  0.31316  0.15580  0.18079  1.0000
  H   H17       1.0  0.32978  0.17289  0.16219  1.0000
  H   H18       1.0  0.29437  0.15615  0.14567  1.0000
  C   C33       1.0  0.64249  0.85625  0.32969  1.0000
  C   C34       1.0  0.62282  0.93399  0.34050  1.0000
  N   N19       1.0  0.65029  0.92452  0.30406  1.0000
  C   C35       1.0  0.66131  0.88740  0.29794  1.0000
  C   C36       1.0  0.68941  0.88332  0.25173  1.0000
  O   O8        1.0  0.71139  0.91054  0.26526  1.0000
  N   N20       1.0  0.69332  0.85804  0.18275  1.0000
  H   H19       1.0  0.67689  0.84089  0.16295  1.0000
  H   H20       1.0  0.71219  0.85828  0.14801  1.0000
  N   N21       1.0  0.61906  0.14792  0.30266  1.0000
  C   C37       1.0  0.60949  0.11150  0.28383  1.0000
  H   H21       1.0  0.59055  0.10851  0.24396  1.0000
  N   N22       1.0  0.39012  0.86381  0.30860  1.0000
  C   C38       1.0  0.40006  0.89994  0.28860  1.0000
  H   H22       1.0  0.41976  0.90219  0.25213  1.0000
  C   C39       1.0  0.86369  0.65583  0.33509  1.0000
  C   C40       1.0  0.88389  0.57813  0.33411  1.0000
  N   N23       1.0  0.85502  0.58768  0.30911  1.0000
  C   C41       1.0  0.84369  0.62476  0.30944  1.0000
  C   C42       1.0  0.81368  0.62875  0.27495  1.0000
  O   O9        1.0  0.79270  0.60127  0.29685  1.0000
  N   N24       1.0  0.80646  0.65417  0.20865  1.0000
  H   H23       1.0  0.82172  0.67149  0.18258  1.0000
  H   H24       1.0  0.78608  0.65399  0.18224  1.0000
  C   C43       1.0  0.14223  0.35676  0.33467  1.0000
  C   C44       1.0  0.12146  0.43423  0.33713  1.0000
  N   N25       1.0  0.15041  0.42518  0.31174  1.0000
  C   C45       1.0  0.16198  0.38823  0.31003  1.0000
  C   C46       1.0  0.19207  0.38479  0.27588  1.0000
  O   O10       1.0  0.21276  0.41255  0.29815  1.0000
  N   N26       1.0  0.19966  0.35963  0.20937  1.0000
  H   H25       1.0  0.18458  0.34224  0.18267  1.0000
  H   H26       1.0  0.22004  0.36032  0.18299  1.0000
  N   N27       1.0  0.11646  0.64902  0.31241  1.0000
  C   C47       1.0  0.10595  0.61294  0.29515  1.0000
  H   H27       1.0  0.08538  0.61087  0.26272  1.0000
  N   N28       1.0  0.89286  0.36366  0.32554  1.0000
  C   C48       1.0  0.90387  0.39965  0.30951  1.0000
  H   H28       1.0  0.92561  0.40154  0.28479  1.0000
  C   C49       1.0  0.47152  0.00762  0.26003  1.0000
  C   C50       1.0  0.53434  0.00875  0.28218  1.0000
  N   N29       1.0  0.51996  0.97688  0.24880  1.0000
  C   C51       1.0  0.48940  0.97475  0.23441  1.0000
  C   C52       1.0  0.47865  0.94022  0.19287  1.0000
  O   O11       1.0  0.49325  0.90620  0.21022  1.0000
  N   N30       1.0  0.45791  0.94066  0.12531  1.0000
  H   H29       1.0  0.44898  0.96491  0.10361  1.0000
  H   H30       1.0  0.45266  0.91662  0.09403  1.0000
  C   C53       1.0  0.97106  0.50751  0.24337  1.0000
  C   C54       1.0  0.03402  0.50889  0.26359  1.0000
  N   N31       1.0  0.01943  0.47638  0.23448  1.0000
  C   C55       1.0  0.98883  0.47410  0.22073  1.0000
  C   C56       1.0  0.97778  0.43848  0.18512  1.0000
  O   O12       1.0  0.99300  0.40509  0.20449  1.0000
  N   N32       1.0  0.95554  0.43677  0.12193  1.0000
  H   H31       1.0  0.94596  0.46028  0.09836  1.0000
  H   H32       1.0  0.95000  0.41188  0.09492  1.0000
  N   N33       1.0  0.23252  0.22929  0.33569  1.0000
  C   C57       1.0  0.26279  0.22152  0.32686  1.0000
  H   H33       1.0  0.26902  0.19490  0.30194  1.0000
  N   N34       1.0  0.77385  0.78346  0.33576  1.0000
  C   C58       1.0  0.74357  0.79112  0.32646  1.0000
  H   H34       1.0  0.73732  0.81757  0.30069  1.0000
  C   C59       1.0  0.78501  0.26333  0.33724  1.0000
  C   C60       1.0  0.72184  0.25058  0.35700  1.0000
  N   N35       1.0  0.73291  0.28402  0.32102  1.0000
  C   C61       1.0  0.76316  0.29199  0.30934  1.0000
  C   C62       1.0  0.76947  0.32757  0.26450  1.0000
  O   O13       1.0  0.75106  0.35860  0.28047  1.0000
  N   N36       1.0  0.78987  0.33053  0.19636  1.0000
  H   H35       1.0  0.80142  0.30804  0.17531  1.0000
  H   H36       1.0  0.79207  0.35498  0.16367  1.0000
  C   C63       1.0  0.22233  0.74961  0.33694  1.0000
  C   C64       1.0  0.28548  0.76237  0.35699  1.0000
  N   N37       1.0  0.27443  0.72875  0.32188  1.0000
  C   C65       1.0  0.24421  0.72080  0.31003  1.0000
  C   C66       1.0  0.23791  0.68495  0.26629  1.0000
  O   O14       1.0  0.25600  0.65383  0.28431  1.0000
  N   N38       1.0  0.21789  0.68175  0.19725  1.0000
  H   H37       1.0  0.20664  0.70425  0.17484  1.0000
  H   H38       1.0  0.21575  0.65714  0.16520  1.0000
  C   C67       1.0  0.97546  0.15055  0.34998  1.0000
  N   N39       1.0  0.97603  0.11070  0.34889  1.0000
  C   C68       1.0  0.00279  0.08977  0.34807  1.0000
  N   N40       1.0  0.02974  0.11044  0.34782  1.0000
  C   C69       1.0  0.03062  0.15034  0.34830  1.0000
  N   N41       1.0  0.00308  0.16876  0.34950  1.0000
  C   C70       1.0  0.03118  0.86086  0.34850  1.0000
  N   N42       1.0  0.03084  0.90057  0.34576  1.0000
  C   C71       1.0  0.00453  0.92227  0.34333  1.0000
  N   N43       1.0  0.97737  0.90195  0.34494  1.0000
  C   C72       1.0  0.97609  0.86199  0.34724  1.0000
  N   N44       1.0  0.00344  0.84306  0.34889  1.0000
  C   C73       1.0  0.47567  0.65043  0.34885  1.0000
  N   N45       1.0  0.47618  0.61058  0.34803  1.0000
  C   C74       1.0  0.50291  0.58958  0.34714  1.0000
  N   N46       1.0  0.52989  0.61018  0.34667  1.0000
  C   C75       1.0  0.53084  0.65008  0.34710  1.0000
  N   N47       1.0  0.50332  0.66854  0.34825  1.0000
  C   C76       1.0  0.53098  0.36057  0.34765  1.0000
  N   N48       1.0  0.53071  0.40029  0.34513  1.0000
  C   C77       1.0  0.50443  0.42207  0.34254  1.0000
  N   N49       1.0  0.47724  0.40181  0.34387  1.0000
  C   C78       1.0  0.47589  0.36185  0.34618  1.0000
  N   N50       1.0  0.50321  0.34288  0.34788  1.0000
  C   C79       1.0  0.39477  0.97135  0.30690  1.0000
  N   N51       1.0  0.37984  0.00556  0.32599  1.0000
  C   C80       1.0  0.39491  0.04055  0.31977  1.0000
  N   N52       1.0  0.42457  0.04044  0.29340  1.0000
  C   C81       1.0  0.43975  0.00746  0.27245  1.0000
  N   N53       1.0  0.42454  0.97372  0.28262  1.0000
  C   C82       1.0  0.61249  0.04106  0.31626  1.0000
  N   N54       1.0  0.62694  0.00617  0.33151  1.0000
  C   C83       1.0  0.61071  0.97187  0.32971  1.0000
  N   N55       1.0  0.58033  0.97331  0.31144  1.0000
  C   C84       1.0  0.56568  0.00725  0.29729  1.0000
  N   N56       1.0  0.58203  0.04027  0.30096  1.0000
  C   C85       1.0  0.89603  0.47123  0.30932  1.0000
  N   N57       1.0  0.88120  0.50558  0.32809  1.0000
  C   C86       1.0  0.89573  0.54066  0.31560  1.0000
  N   N58       1.0  0.92464  0.54043  0.28275  1.0000
  C   C87       1.0  0.93955  0.50735  0.26107  1.0000
  N   N59       1.0  0.92499  0.47368  0.27785  1.0000
  C   C88       1.0  0.11116  0.54153  0.31321  1.0000
  N   N60       1.0  0.12547  0.50661  0.32982  1.0000
  C   C89       1.0  0.10957  0.47211  0.32329  1.0000
  N   N61       1.0  0.07967  0.47340  0.29887  1.0000
  C   C90       1.0  0.06518  0.50722  0.28214  1.0000
  N   N62       1.0  0.08125  0.54024  0.29088  1.0000
  C   C91       1.0  0.13657  0.24900  0.35398  1.0000
  N   N63       1.0  0.16721  0.24071  0.36132  1.0000
  C   C92       1.0  0.18917  0.26932  0.36242  1.0000
  N   N64       1.0  0.17964  0.30648  0.35135  1.0000
  C   C93       1.0  0.15013  0.31678  0.34169  1.0000
  N   N65       1.0  0.12908  0.28756  0.34475  1.0000
  C   C94       1.0  0.86987  0.76364  0.35471  1.0000
  N   N66       1.0  0.83925  0.77208  0.36216  1.0000
  C   C95       1.0  0.81721  0.74357  0.36344  1.0000
  N   N67       1.0  0.82663  0.70638  0.35240  1.0000
  C   C96       1.0  0.85609  0.69589  0.34261  1.0000
  N   N68       1.0  0.87724  0.72502  0.34549  1.0000
  C   C97       1.0  0.86961  0.24876  0.34843  1.0000
  N   N69       1.0  0.83895  0.24049  0.34305  1.0000
  C   C98       1.0  0.81712  0.26923  0.34251  1.0000
  N   N70       1.0  0.82669  0.30649  0.35147  1.0000
  C   C99       1.0  0.85628  0.31662  0.35932  1.0000
  N   N71       1.0  0.87720  0.28730  0.35565  1.0000
  C   C100      1.0  0.13761  0.76385  0.34654  1.0000
  N   N72       1.0  0.16826  0.77234  0.34205  1.0000
  C   C101      1.0  0.19022  0.74370  0.34208  1.0000
  N   N73       1.0  0.18078  0.70639  0.35077  1.0000
  C   C102      1.0  0.15121  0.69616  0.35753  1.0000
  N   N74       1.0  0.13015  0.72527  0.35310  1.0000
  C   C103      1.0  0.63685  0.74857  0.34757  1.0000
  N   N75       1.0  0.66753  0.74005  0.34935  1.0000
  C   C104      1.0  0.68959  0.76843  0.34398  1.0000
  N   N76       1.0  0.68013  0.80585  0.33706  1.0000
  C   C105      1.0  0.65045  0.81626  0.33362  1.0000
  N   N77       1.0  0.62936  0.78719  0.34011  1.0000
  C   C106      1.0  0.36960  0.26366  0.34819  1.0000
  N   N78       1.0  0.33894  0.27234  0.34981  1.0000
  C   C107      1.0  0.31679  0.24409  0.34453  1.0000
  N   N79       1.0  0.32615  0.20663  0.33770  1.0000
  C   C108      1.0  0.35578  0.19602  0.33438  1.0000
  N   N80       1.0  0.37698  0.22498  0.34082  1.0000
  C   C109      1.0  0.37001  0.74887  0.35182  1.0000
  N   N81       1.0  0.33938  0.74030  0.35403  1.0000
  C   C110      1.0  0.31746  0.76878  0.36011  1.0000
  N   N82       1.0  0.32682  0.80635  0.36297  1.0000
  C   C111      1.0  0.35654  0.81663  0.36236  1.0000
  N   N83       1.0  0.37754  0.78752  0.35528  1.0000
  C   C112      1.0  0.63720  0.26332  0.34995  1.0000
  N   N84       1.0  0.66778  0.27224  0.35287  1.0000
  C   C113      1.0  0.68988  0.24399  0.35954  1.0000
  N   N85       1.0  0.68075  0.20633  0.36219  1.0000
  C   C114      1.0  0.65112  0.19578  0.36075  1.0000
  N   N86       1.0  0.62992  0.22460  0.35312  1.0000
  N   N87       1.0  0.97890  0.98461  0.35337  1.0000
  C   C115      1.0  0.97635  0.02430  0.35599  1.0000
  H   H39       1.0  0.95526  0.03643  0.36613  1.0000
  N   N88       1.0  0.47889  0.48447  0.35244  1.0000
  C   C116      1.0  0.47638  0.52415  0.35501  1.0000
  H   H40       1.0  0.45531  0.53633  0.36506  1.0000
  C   C117      1.0  0.11194  0.22089  0.35493  1.0000
  C   C118      1.0  0.05799  0.17363  0.34849  1.0000
  N   N89       1.0  0.08650  0.15842  0.36174  1.0000
  C   C119      1.0  0.11320  0.17953  0.36589  1.0000
  C   C120      1.0  0.14006  0.15816  0.38434  1.0000
  O   O15       1.0  0.14394  0.12338  0.34271  1.0000
  N   N90       1.0  0.15824  0.16638  0.45553  1.0000
  H   H41       1.0  0.15390  0.18821  0.49546  1.0000
  H   H42       1.0  0.17502  0.14900  0.47124  1.0000
  C   C121      1.0  0.89453  0.79172  0.35537  1.0000
  C   C122      1.0  0.94859  0.83887  0.34807  1.0000
  N   N91       1.0  0.92012  0.85415  0.36163  1.0000
  C   C123      1.0  0.89339  0.83310  0.36626  1.0000
  C   C124      1.0  0.86659  0.85453  0.38499  1.0000
  O   O16       1.0  0.86276  0.88944  0.34387  1.0000
  N   N92       1.0  0.84844  0.84635  0.45626  1.0000
  H   H43       1.0  0.85281  0.82454  0.49622  1.0000
  H   H44       1.0  0.83179  0.86388  0.47240  1.0000
  N   N93       1.0  0.92280  0.23551  0.36048  1.0000
  C   C125      1.0  0.94910  0.21466  0.36274  1.0000
  H   H45       1.0  0.96914  0.22929  0.37388  1.0000
  N   N94       1.0  0.08432  0.77650  0.35922  1.0000
  C   C126      1.0  0.05785  0.79700  0.36169  1.0000
  H   H46       1.0  0.03792  0.78224  0.37342  1.0000
  C   C127      1.0  0.61221  0.72055  0.35124  1.0000
  C   C128      1.0  0.55821  0.67336  0.34700  1.0000
  N   N95       1.0  0.58681  0.65807  0.35783  1.0000
  C   C129      1.0  0.61355  0.67913  0.36091  1.0000
  C   C130      1.0  0.64058  0.65765  0.37656  1.0000
  O   O17       1.0  0.64391  0.62289  0.33443  1.0000
  N   N96       1.0  0.65980  0.66593  0.44529  1.0000
  H   H47       1.0  0.65607  0.68780  0.48562  1.0000
  H   H48       1.0  0.67678  0.64854  0.45898  1.0000
  C   C131      1.0  0.39428  0.29166  0.35164  1.0000
  C   C132      1.0  0.44839  0.33873  0.34673  1.0000
  N   N97       1.0  0.41981  0.35412  0.35750  1.0000
  C   C133      1.0  0.39304  0.33311  0.36096  1.0000
  C   C134      1.0  0.36604  0.35468  0.37647  1.0000
  O   O18       1.0  0.36280  0.38951  0.33457  1.0000
  N   N98       1.0  0.34677  0.34654  0.44519  1.0000
  H   H49       1.0  0.35050  0.32474  0.48575  1.0000
  H   H50       1.0  0.32991  0.36410  0.45902  1.0000
  N   N99       1.0  0.42329  0.73572  0.35774  1.0000
  C   C135      1.0  0.44957  0.71482  0.35877  1.0000
  H   H51       1.0  0.46972  0.72951  0.36731  1.0000
  N   N100      1.0  0.58381  0.27582  0.35682  1.0000
  C   C136      1.0  0.55737  0.29642  0.35820  1.0000
  H   H52       1.0  0.53732  0.28160  0.36749  1.0000
  N   N101      1.0  0.39077  0.14565  0.36593  1.0000
  C   C137      1.0  0.40095  0.10846  0.37058  1.0000
  H   H53       1.0  0.42228  0.10341  0.39649  1.0000
  N   N102      1.0  0.61506  0.86588  0.36629  1.0000
  C   C138      1.0  0.60461  0.90286  0.37276  1.0000
  H   H54       1.0  0.58332  0.90736  0.39946  1.0000
  C   C139      1.0  0.64342  0.15591  0.35580  1.0000
  C   C140      1.0  0.62505  0.07908  0.32131  1.0000
  N   N103      1.0  0.64984  0.08700  0.37332  1.0000
  C   C141      1.0  0.66026  0.12374  0.39137  1.0000
  C   C142      1.0  0.68575  0.12637  0.44982  1.0000
  O   O19       1.0  0.70757  0.09843  0.44445  1.0000
  N   N104      1.0  0.68754  0.15207  0.51873  1.0000
  H   H55       1.0  0.67091  0.16998  0.53223  1.0000
  H   H56       1.0  0.70473  0.15104  0.56034  1.0000
  C   C143      1.0  0.36460  0.85644  0.35730  1.0000
  C   C144      1.0  0.38335  0.93293  0.31840  1.0000
  N   N105      1.0  0.35758  0.92561  0.36666  1.0000
  C   C145      1.0  0.34710  0.88913  0.38714  1.0000
  C   C146      1.0  0.32053  0.88731  0.44140  1.0000
  O   O20       1.0  0.29878  0.91504  0.43030  1.0000
  N   N106      1.0  0.31770  0.86303  0.51272  1.0000
  H   H57       1.0  0.33419  0.84559  0.53046  1.0000
  H   H58       1.0  0.29987  0.86477  0.55177  1.0000
  N   N107      1.0  0.89250  0.64604  0.36051  1.0000
  C   C147      1.0  0.90323  0.60907  0.36123  1.0000
  H   H59       1.0  0.92554  0.60449  0.37923  1.0000
  N   N108      1.0  0.11338  0.36602  0.36067  1.0000
  C   C148      1.0  0.10237  0.40282  0.36287  1.0000
  H   H60       1.0  0.08009  0.40692  0.38179  1.0000
  C   C149      1.0  0.14315  0.65633  0.35518  1.0000
  C   C150      1.0  0.12315  0.57985  0.32220  1.0000
  N   N109      1.0  0.15020  0.58713  0.36407  1.0000
  C   C151      1.0  0.16136  0.62363  0.38124  1.0000
  C   C152      1.0  0.18955  0.62550  0.42791  1.0000
  O   O21       1.0  0.21079  0.59770  0.41098  1.0000
  N   N110      1.0  0.19493  0.65033  0.49689  1.0000
  H   H61       1.0  0.17921  0.66805  0.51877  1.0000
  H   H62       1.0  0.21406  0.64883  0.53027  1.0000
  C   C153      1.0  0.86459  0.35649  0.35875  1.0000
  C   C154      1.0  0.88519  0.43278  0.32519  1.0000
  N   N111      1.0  0.85687  0.42571  0.35908  1.0000
  C   C155      1.0  0.84553  0.38939  0.37706  1.0000
  C   C156      1.0  0.81596  0.38805  0.41577  1.0000
  O   O22       1.0  0.79531  0.41551  0.39122  1.0000
  N   N112      1.0  0.80875  0.36483  0.48627  1.0000
  H   H63       1.0  0.82387  0.34781  0.51398  1.0000
  H   H64       1.0  0.78876  0.36690  0.51474  1.0000
  N   N113      1.0  0.48621  0.03968  0.29207  1.0000
  C   C157      1.0  0.51679  0.04219  0.30117  1.0000
  H   H65       1.0  0.52611  0.06701  0.32787  1.0000
  N   N114      1.0  0.98597  0.54014  0.27111  1.0000
  C   C158      1.0  0.01658  0.54284  0.27842  1.0000
  H   H66       1.0  0.02587  0.56808  0.30301  1.0000
  C   C159      1.0  0.22136  0.26347  0.36817  1.0000
  C   C160      1.0  0.28472  0.25043  0.34908  1.0000
  N   N115      1.0  0.27357  0.28436  0.38239  1.0000
  C   C161      1.0  0.24330  0.29244  0.39381  1.0000
  C   C162      1.0  0.23704  0.32867  0.43585  1.0000
  O   O23       1.0  0.25556  0.35936  0.41777  1.0000
  N   N116      1.0  0.21665  0.33265  0.50371  1.0000
  H   H67       1.0  0.20506  0.31050  0.52645  1.0000
  H   H68       1.0  0.21450  0.35754  0.53459  1.0000
  C   C163      1.0  0.78502  0.74948  0.36932  1.0000
  C   C164      1.0  0.72167  0.76223  0.34907  1.0000
  N   N117      1.0  0.73284  0.72848  0.38327  1.0000
  C   C165      1.0  0.76309  0.72055  0.39532  1.0000
  C   C166      1.0  0.76939  0.68446  0.43797  1.0000
  O   O24       1.0  0.75082  0.65372  0.42082  1.0000
  N   N118      1.0  0.78987  0.68067  0.50569  1.0000
  H   H69       1.0  0.80143  0.70291  0.52806  1.0000
  H   H70       1.0  0.79194  0.65592  0.53721  1.0000
  N   N119      1.0  0.77393  0.22964  0.37244  1.0000
  C   C167      1.0  0.74368  0.22199  0.38184  1.0000
  H   H71       1.0  0.73735  0.19575  0.40872  1.0000
  N   N120      1.0  0.23340  0.78346  0.37140  1.0000
  C   C168      1.0  0.26365  0.79112  0.38080  1.0000
  H   H72       1.0  0.26998  0.81747  0.40715  1.0000
