data_image0
_chemical_formula_structural       CNHCNHCNHCNHC2NCHC2NCHCNHCNHC2NCHC2NCHCNHCNHCNHCNHC2NCHC2NCHC2NCHC2NCHCNCNCNCNCNCNCNCNCNCNCNCNCNCNCNCNCNCNCNCNCNCNCNCNCNCNCNCNCNCNCNCNCNCNCNCNC2NCHC2NCHC2NCHC2NCHCNHCNHC2NCHC2NCHCNHCNHC2NCHC2NCHC2NCHC2NCHCNHCNHCNHCNHCNHCNHCNHCNHC2NCHC2NCHCNHCNHC2NCHC2NCHCNHCNHCNHCNHC2NCHC2NCHC2NCHC2NCHCNCNCNCNCNCNCNCNCNCNCNCNCNCNCNCNCNCNCNCNCNCNCNCNCNCNCNCNCNCNCNCNCNCNCNCNC2NCHC2NCHC2NCHC2NCHCNHCNHC2NCHC2NCHCNHCNHC2NCHC2NCHC2NCHC2NCHCNHCNHCNHCNH
_chemical_formula_sum              "C216 N144 H72"
_cell_length_a       42.1964
_cell_length_b       54.7062
_cell_length_c       14.9188
_cell_angle_alpha    90
_cell_angle_beta     90
_cell_angle_gamma    90

_space_group_name_H-M_alt    "P 1"
_space_group_IT_number       1

loop_
  _space_group_symop_operation_xyz
  'x, y, z'

loop_
  _atom_site_type_symbol
  _atom_site_label
  _atom_site_symmetry_multiplicity
  _atom_site_fract_x
  _atom_site_fract_y
  _atom_site_fract_z
  _atom_site_occupancy
  C   C1        1.0  0.26906  0.14843  0.34846  1.0000
  N   N1        1.0  0.23671  0.15035  0.34916  1.0000
  H   H1        1.0  0.27943  0.13166  0.34179  1.0000
  C   C2        1.0  0.23766  0.81279  0.34240  1.0000
  N   N2        1.0  0.26919  0.81473  0.34317  1.0000
  H   H2        1.0  0.22860  0.79548  0.34233  1.0000
  C   C3        1.0  0.01805  0.64793  0.33745  1.0000
  N   N3        1.0  0.48563  0.64975  0.33679  1.0000
  H   H3        1.0  0.02854  0.63111  0.33762  1.0000
  C   C4        1.0  0.48699  0.31212  0.31962  1.0000
  N   N4        1.0  0.01856  0.31412  0.32139  1.0000
  H   H4        1.0  0.47790  0.29485  0.31522  1.0000
  C   C5        1.0  0.11139  0.14175  0.33506  1.0000
  C   C6        1.0  0.11623  0.11613  0.33739  1.0000
  N   N5        1.0  0.09061  0.10078  0.33493  1.0000
  C   C7        1.0  0.05999  0.10870  0.32926  1.0000
  H   H5        1.0  0.13848  0.10892  0.34244  1.0000
  C   C8        1.0  0.39713  0.86320  0.34267  1.0000
  C   C9        1.0  0.42939  0.85633  0.34247  1.0000
  N   N6        1.0  0.45177  0.87386  0.34223  1.0000
  C   C10       1.0  0.44617  0.89835  0.34214  1.0000
  H   H6        1.0  0.43667  0.83852  0.34250  1.0000
  C   C11       1.0  0.45331  0.13383  0.32343  1.0000
  N   N7        1.0  0.42782  0.14856  0.32599  1.0000
  H   H7        1.0  0.47489  0.14213  0.31897  1.0000
  C   C12       1.0  0.05247  0.87129  0.34069  1.0000
  N   N8        1.0  0.07787  0.85638  0.34048  1.0000
  H   H8        1.0  0.03068  0.86318  0.34061  1.0000
  C   C13       1.0  0.35923  0.64172  0.33646  1.0000
  C   C14       1.0  0.36395  0.61609  0.33652  1.0000
  N   N9        1.0  0.33826  0.60082  0.33672  1.0000
  C   C15       1.0  0.30761  0.60881  0.33676  1.0000
  H   H9        1.0  0.38623  0.60879  0.33653  1.0000
  C   C16       1.0  0.14634  0.36304  0.34302  1.0000
  C   C17       1.0  0.17857  0.35612  0.34684  1.0000
  N   N10       1.0  0.20106  0.37357  0.34730  1.0000
  C   C18       1.0  0.19559  0.39806  0.34506  1.0000
  H   H10       1.0  0.18579  0.33830  0.34832  1.0000
  C   C19       1.0  0.16488  0.59999  0.33833  1.0000
  N   N11       1.0  0.14190  0.61765  0.33838  1.0000
  H   H11       1.0  0.15856  0.58197  0.33851  1.0000
  C   C20       1.0  0.30208  0.37098  0.34487  1.0000
  N   N12       1.0  0.32747  0.35609  0.34280  1.0000
  H   H12       1.0  0.28031  0.36286  0.34737  1.0000
  C   C21       1.0  0.09535  0.25825  0.32943  1.0000
  N   N13       1.0  0.10534  0.23466  0.33262  1.0000
  H   H13       1.0  0.07174  0.26162  0.32062  1.0000
  C   C22       1.0  0.40819  0.74707  0.33379  1.0000
  N   N14       1.0  0.39863  0.77072  0.33595  1.0000
  H   H14       1.0  0.43192  0.74358  0.32966  1.0000
  C   C23       1.0  0.37072  0.22689  0.33787  1.0000
  C   C24       1.0  0.40202  0.23558  0.32955  1.0000
  N   N15       1.0  0.40708  0.26008  0.32824  1.0000
  C   C25       1.0  0.38377  0.27732  0.33422  1.0000
  H   H15       1.0  0.42088  0.22395  0.32461  1.0000
  C   C26       1.0  0.13501  0.77768  0.33800  1.0000
  C   C27       1.0  0.15806  0.75884  0.33312  1.0000
  N   N16       1.0  0.14888  0.73508  0.33396  1.0000
  C   C28       1.0  0.11813  0.72796  0.33926  1.0000
  H   H16       1.0  0.18173  0.76254  0.32891  1.0000
  C   C29       1.0  0.00529  0.02883  0.33599  1.0000
  C   C30       1.0  0.03311  0.01438  0.33594  1.0000
  N   N17       1.0  0.03068  0.98956  0.33748  1.0000
  C   C31       1.0  0.00267  0.97716  0.33929  1.0000
  H   H17       1.0  0.05513  0.02211  0.33442  1.0000
  C   C32       1.0  0.25421  0.52849  0.33890  1.0000
  C   C33       1.0  0.28216  0.51419  0.33737  1.0000
  N   N18       1.0  0.27996  0.48935  0.33835  1.0000
  C   C34       1.0  0.25206  0.47680  0.34072  1.0000
  H   H18       1.0  0.30409  0.52208  0.33554  1.0000
  C   C35       1.0  0.18768  0.17433  0.35204  1.0000
  N   N19       1.0  0.16643  0.15562  0.34573  1.0000
  C   C36       1.0  0.13462  0.16023  0.33983  1.0000
  N   N20       1.0  0.12469  0.18408  0.33946  1.0000
  C   C37       1.0  0.14503  0.20317  0.34553  1.0000
  N   N21       1.0  0.17588  0.19737  0.35167  1.0000
  C   C38       1.0  0.31895  0.83306  0.34357  1.0000
  N   N22       1.0  0.34140  0.85102  0.34334  1.0000
  C   C39       1.0  0.37300  0.84530  0.34284  1.0000
  N   N23       1.0  0.38135  0.82112  0.34230  1.0000
  C   C40       1.0  0.35987  0.80273  0.34262  1.0000
  N   N24       1.0  0.32930  0.80954  0.34322  1.0000
  C   C41       1.0  0.32069  0.17238  0.34764  1.0000
  N   N25       1.0  0.34226  0.15389  0.34206  1.0000
  C   C42       1.0  0.37393  0.15887  0.33589  1.0000
  N   N26       1.0  0.38333  0.18284  0.33457  1.0000
  C   C43       1.0  0.36261  0.20174  0.33969  1.0000
  N   N27       1.0  0.33182  0.19567  0.34633  1.0000
  C   C44       1.0  0.18552  0.83209  0.34059  1.0000
  N   N28       1.0  0.16385  0.85063  0.34081  1.0000
  C   C45       1.0  0.13198  0.84578  0.34022  1.0000
  N   N29       1.0  0.12237  0.82182  0.33932  1.0000
  C   C46       1.0  0.14309  0.80288  0.33861  1.0000
  N   N30       1.0  0.17387  0.80903  0.33941  1.0000
  C   C47       1.0  0.43628  0.67376  0.33611  1.0000
  N   N31       1.0  0.41466  0.65520  0.33621  1.0000
  C   C48       1.0  0.38279  0.66002  0.33639  1.0000
  N   N32       1.0  0.37314  0.68395  0.33662  1.0000
  C   C49       1.0  0.39380  0.70291  0.33632  1.0000
  N   N33       1.0  0.42462  0.69684  0.33614  1.0000
  C   C50       1.0  0.06825  0.33264  0.33099  1.0000
  N   N34       1.0  0.09054  0.35071  0.33553  1.0000
  C   C51       1.0  0.12217  0.34516  0.34003  1.0000
  N   N35       1.0  0.13064  0.32103  0.34063  1.0000
  C   C52       1.0  0.10937  0.30254  0.33629  1.0000
  N   N36       1.0  0.07877  0.30917  0.33148  1.0000
  C   C53       1.0  0.06970  0.67231  0.33863  1.0000
  N   N37       1.0  0.09220  0.65438  0.33835  1.0000
  C   C54       1.0  0.12381  0.66013  0.33839  1.0000
  N   N38       1.0  0.13211  0.68434  0.33866  1.0000
  C   C55       1.0  0.11057  0.70271  0.33925  1.0000
  N   N39       1.0  0.08005  0.69582  0.33916  1.0000
  C   C56       1.0  0.43480  0.33128  0.32847  1.0000
  N   N40       1.0  0.41339  0.34999  0.33255  1.0000
  C   C57       1.0  0.38149  0.34540  0.33638  1.0000
  N   N41       1.0  0.37165  0.32153  0.33682  1.0000
  C   C58       1.0  0.39207  0.30243  0.33306  1.0000
  N   N42       1.0  0.42297  0.30823  0.32890  1.0000
  C   C59       1.0  0.03347  0.09282  0.32904  1.0000
  N   N43       1.0  0.03315  0.06793  0.33241  1.0000
  C   C60       1.0  0.00530  0.05490  0.33353  1.0000
  N   N44       1.0  0.47716  0.06757  0.33199  1.0000
  C   C61       1.0  0.47630  0.09248  0.32851  1.0000
  N   N45       1.0  0.00477  0.10359  0.32717  1.0000
  C   C62       1.0  0.47308  0.91370  0.34164  1.0000
  N   N46       1.0  0.47413  0.93856  0.34104  1.0000
  C   C63       1.0  0.50231  0.95108  0.34038  1.0000
  N   N47       1.0  0.03005  0.93789  0.34032  1.0000
  C   C64       1.0  0.03014  0.91293  0.34090  1.0000
  N   N48       1.0  0.50135  0.90220  0.34150  1.0000
  C   C65       1.0  0.28115  0.59288  0.33717  1.0000
  N   N49       1.0  0.28138  0.56795  0.33762  1.0000
  C   C66       1.0  0.25384  0.55456  0.33822  1.0000
  N   N50       1.0  0.22546  0.56687  0.33838  1.0000
  C   C67       1.0  0.22410  0.59175  0.33791  1.0000
  N   N51       1.0  0.25226  0.60343  0.33735  1.0000
  C   C68       1.0  0.22258  0.41333  0.34465  1.0000
  N   N52       1.0  0.22365  0.43818  0.34300  1.0000
  C   C69       1.0  0.25182  0.45072  0.34186  1.0000
  N   N53       1.0  0.27956  0.43754  0.34187  1.0000
  C   C70       1.0  0.27966  0.41258  0.34348  1.0000
  N   N54       1.0  0.25086  0.40183  0.34490  1.0000
  C   C71       1.0  0.22095  0.17210  0.35591  1.0000
  C   C72       1.0  0.23985  0.19334  0.36387  1.0000
  N   N55       1.0  0.27140  0.19126  0.36102  1.0000
  C   C73       1.0  0.28753  0.16996  0.35285  1.0000
  H   H19       1.0  0.23084  0.21060  0.36949  1.0000
  C   C74       1.0  0.28574  0.83595  0.34342  1.0000
  C   C75       1.0  0.26745  0.85762  0.34305  1.0000
  N   N56       1.0  0.23502  0.85593  0.34218  1.0000
  C   C76       1.0  0.21890  0.83423  0.34169  1.0000
  H   H20       1.0  0.27805  0.87440  0.34314  1.0000
  C   C77       1.0  0.46964  0.67151  0.33648  1.0000
  C   C78       1.0  0.48850  0.69289  0.33688  1.0000
  N   N57       1.0  0.02002  0.69081  0.33768  1.0000
  C   C79       1.0  0.03647  0.66954  0.33804  1.0000
  H   H21       1.0  0.47953  0.71022  0.33676  1.0000
  C   C80       1.0  0.03502  0.33534  0.32745  1.0000
  C   C81       1.0  0.01662  0.35694  0.33094  1.0000
  N   N58       1.0  0.48421  0.35515  0.33064  1.0000
  C   C82       1.0  0.46816  0.33345  0.32571  1.0000
  H   H22       1.0  0.02712  0.37370  0.33599  1.0000
  C   C83       1.0  0.05571  0.13440  0.32538  1.0000
  N   N59       1.0  0.08094  0.14937  0.32882  1.0000
  H   H23       1.0  0.03400  0.14249  0.32095  1.0000
  C   C84       1.0  0.41396  0.90542  0.34240  1.0000
  N   N60       1.0  0.39100  0.88775  0.34267  1.0000
  H   H24       1.0  0.40762  0.92343  0.34237  1.0000
  C   C85       1.0  0.39750  0.14063  0.33205  1.0000
  C   C86       1.0  0.39311  0.11497  0.33518  1.0000
  N   N61       1.0  0.41898  0.09987  0.33347  1.0000
  C   C87       1.0  0.44949  0.10808  0.32802  1.0000
  H   H25       1.0  0.37097  0.10755  0.34010  1.0000
  C   C88       1.0  0.10840  0.86410  0.34051  1.0000
  C   C89       1.0  0.11306  0.88975  0.34076  1.0000
  N   N62       1.0  0.08735  0.90501  0.34080  1.0000
  C   C90       1.0  0.05668  0.89703  0.34080  1.0000
  H   H26       1.0  0.13533  0.89705  0.34073  1.0000
  C   C91       1.0  0.30332  0.63453  0.33654  1.0000
  N   N63       1.0  0.32870  0.64944  0.33645  1.0000
  H   H27       1.0  0.28150  0.64260  0.33656  1.0000
  C   C92       1.0  0.16340  0.40521  0.34233  1.0000
  N   N64       1.0  0.14036  0.38760  0.34107  1.0000
  H   H28       1.0  0.15716  0.42323  0.34023  1.0000
  C   C93       1.0  0.14796  0.64223  0.33817  1.0000
  C   C94       1.0  0.18021  0.64909  0.33786  1.0000
  N   N65       1.0  0.20261  0.63157  0.33778  1.0000
  C   C95       1.0  0.19710  0.60706  0.33801  1.0000
  H   H29       1.0  0.18748  0.66690  0.33766  1.0000
  C   C96       1.0  0.35800  0.36378  0.33925  1.0000
  C   C97       1.0  0.36264  0.38942  0.33796  1.0000
  N   N66       1.0  0.33691  0.40469  0.33960  1.0000
  C   C98       1.0  0.30625  0.39671  0.34289  1.0000
  H   H30       1.0  0.38489  0.39673  0.33509  1.0000
  C   C99       1.0  0.13617  0.22817  0.34406  1.0000
  C   C100      1.0  0.15844  0.24744  0.35276  1.0000
  N   N67       1.0  0.14847  0.27098  0.34942  1.0000
  C   C101      1.0  0.11768  0.27746  0.33796  1.0000
  H   H31       1.0  0.18207  0.24420  0.36153  1.0000
  C   C102      1.0  0.36776  0.77756  0.34134  1.0000
  C   C103      1.0  0.34492  0.75857  0.34462  1.0000
  N   N68       1.0  0.35449  0.73486  0.34256  1.0000
  C   C104      1.0  0.38539  0.72803  0.33723  1.0000
  H   H32       1.0  0.32121  0.76218  0.34874  1.0000
  C   C105      1.0  0.35245  0.26863  0.34235  1.0000
  N   N69       1.0  0.34739  0.24411  0.34383  1.0000
  H   H33       1.0  0.33362  0.28029  0.34747  1.0000
  C   C106      1.0  0.09502  0.74675  0.34390  1.0000
  N   N70       1.0  0.10422  0.77056  0.34321  1.0000
  H   H34       1.0  0.07137  0.74294  0.34809  1.0000
  C   C107      1.0  0.97487  0.99164  0.33951  1.0000
  N   N71       1.0  0.97731  0.01643  0.33777  1.0000
  H   H35       1.0  0.95281  0.98396  0.34071  1.0000
  C   C108      1.0  0.22414  0.49114  0.34225  1.0000
  N   N72       1.0  0.22636  0.51592  0.34130  1.0000
  H   H36       1.0  0.20215  0.48336  0.34419  1.0000
  C   C109      1.0  0.76906  0.14843  0.34846  1.0000
  N   N73       1.0  0.73671  0.15035  0.34916  1.0000
  H   H37       1.0  0.77943  0.13166  0.34179  1.0000
  C   C110      1.0  0.73765  0.81279  0.34240  1.0000
  N   N74       1.0  0.76919  0.81473  0.34317  1.0000
  H   H38       1.0  0.72860  0.79548  0.34233  1.0000
  C   C111      1.0  0.51805  0.64793  0.33745  1.0000
  N   N75       1.0  0.98563  0.64975  0.33679  1.0000
  H   H39       1.0  0.52854  0.63111  0.33762  1.0000
  C   C112      1.0  0.98699  0.31212  0.31962  1.0000
  N   N76       1.0  0.51856  0.31412  0.32139  1.0000
  H   H40       1.0  0.97790  0.29485  0.31522  1.0000
  C   C113      1.0  0.61139  0.14175  0.33506  1.0000
  C   C114      1.0  0.61623  0.11613  0.33739  1.0000
  N   N77       1.0  0.59062  0.10078  0.33493  1.0000
  C   C115      1.0  0.55999  0.10870  0.32926  1.0000
  H   H41       1.0  0.63848  0.10892  0.34244  1.0000
  C   C116      1.0  0.89713  0.86320  0.34267  1.0000
  C   C117      1.0  0.92939  0.85633  0.34247  1.0000
  N   N78       1.0  0.95177  0.87386  0.34223  1.0000
  C   C118      1.0  0.94617  0.89835  0.34214  1.0000
  H   H42       1.0  0.93667  0.83852  0.34250  1.0000
  C   C119      1.0  0.95331  0.13383  0.32343  1.0000
  N   N79       1.0  0.92782  0.14856  0.32599  1.0000
  H   H43       1.0  0.97489  0.14213  0.31897  1.0000
  C   C120      1.0  0.55248  0.87129  0.34069  1.0000
  N   N80       1.0  0.57787  0.85638  0.34048  1.0000
  H   H44       1.0  0.53068  0.86318  0.34061  1.0000
  C   C121      1.0  0.85923  0.64172  0.33646  1.0000
  C   C122      1.0  0.86396  0.61609  0.33652  1.0000
  N   N81       1.0  0.83827  0.60082  0.33672  1.0000
  C   C123      1.0  0.80761  0.60881  0.33676  1.0000
  H   H45       1.0  0.88623  0.60879  0.33653  1.0000
  C   C124      1.0  0.64634  0.36304  0.34302  1.0000
  C   C125      1.0  0.67857  0.35612  0.34684  1.0000
  N   N82       1.0  0.70106  0.37357  0.34730  1.0000
  C   C126      1.0  0.69558  0.39806  0.34506  1.0000
  H   H46       1.0  0.68579  0.33830  0.34832  1.0000
  C   C127      1.0  0.66488  0.59999  0.33833  1.0000
  N   N83       1.0  0.64190  0.61765  0.33838  1.0000
  H   H47       1.0  0.65856  0.58197  0.33851  1.0000
  C   C128      1.0  0.80208  0.37098  0.34487  1.0000
  N   N84       1.0  0.82747  0.35609  0.34280  1.0000
  H   H48       1.0  0.78031  0.36286  0.34737  1.0000
  C   C129      1.0  0.59535  0.25825  0.32943  1.0000
  N   N85       1.0  0.60534  0.23466  0.33262  1.0000
  H   H49       1.0  0.57174  0.26162  0.32062  1.0000
  C   C130      1.0  0.90819  0.74707  0.33379  1.0000
  N   N86       1.0  0.89863  0.77072  0.33595  1.0000
  H   H50       1.0  0.93191  0.74358  0.32966  1.0000
  C   C131      1.0  0.87072  0.22689  0.33787  1.0000
  C   C132      1.0  0.90202  0.23558  0.32955  1.0000
  N   N87       1.0  0.90708  0.26008  0.32824  1.0000
  C   C133      1.0  0.88377  0.27732  0.33422  1.0000
  H   H51       1.0  0.92088  0.22395  0.32461  1.0000
  C   C134      1.0  0.63501  0.77768  0.33800  1.0000
  C   C135      1.0  0.65806  0.75884  0.33312  1.0000
  N   N88       1.0  0.64888  0.73508  0.33396  1.0000
  C   C136      1.0  0.61813  0.72796  0.33926  1.0000
  H   H52       1.0  0.68173  0.76254  0.32891  1.0000
  C   C137      1.0  0.50529  0.02883  0.33599  1.0000
  C   C138      1.0  0.53311  0.01438  0.33594  1.0000
  N   N89       1.0  0.53068  0.98956  0.33748  1.0000
  C   C139      1.0  0.50267  0.97716  0.33929  1.0000
  H   H53       1.0  0.55513  0.02211  0.33442  1.0000
  C   C140      1.0  0.75422  0.52849  0.33890  1.0000
  C   C141      1.0  0.78216  0.51419  0.33737  1.0000
  N   N90       1.0  0.77996  0.48935  0.33835  1.0000
  C   C142      1.0  0.75206  0.47680  0.34072  1.0000
  H   H54       1.0  0.80409  0.52208  0.33554  1.0000
  C   C143      1.0  0.68768  0.17433  0.35204  1.0000
  N   N91       1.0  0.66643  0.15562  0.34573  1.0000
  C   C144      1.0  0.63462  0.16023  0.33983  1.0000
  N   N92       1.0  0.62469  0.18408  0.33946  1.0000
  C   C145      1.0  0.64503  0.20317  0.34553  1.0000
  N   N93       1.0  0.67588  0.19737  0.35167  1.0000
  C   C146      1.0  0.81895  0.83306  0.34357  1.0000
  N   N94       1.0  0.84140  0.85102  0.34334  1.0000
  C   C147      1.0  0.87300  0.84530  0.34284  1.0000
  N   N95       1.0  0.88135  0.82112  0.34230  1.0000
  C   C148      1.0  0.85987  0.80273  0.34262  1.0000
  N   N96       1.0  0.82930  0.80954  0.34322  1.0000
  C   C149      1.0  0.82069  0.17238  0.34764  1.0000
  N   N97       1.0  0.84226  0.15389  0.34206  1.0000
  C   C150      1.0  0.87393  0.15887  0.33589  1.0000
  N   N98       1.0  0.88334  0.18284  0.33457  1.0000
  C   C151      1.0  0.86261  0.20174  0.33969  1.0000
  N   N99       1.0  0.83182  0.19567  0.34633  1.0000
  C   C152      1.0  0.68552  0.83209  0.34059  1.0000
  N   N100      1.0  0.66385  0.85063  0.34081  1.0000
  C   C153      1.0  0.63197  0.84578  0.34022  1.0000
  N   N101      1.0  0.62237  0.82182  0.33932  1.0000
  C   C154      1.0  0.64309  0.80288  0.33861  1.0000
  N   N102      1.0  0.67387  0.80903  0.33941  1.0000
  C   C155      1.0  0.93628  0.67376  0.33611  1.0000
  N   N103      1.0  0.91466  0.65520  0.33621  1.0000
  C   C156      1.0  0.88279  0.66002  0.33639  1.0000
  N   N104      1.0  0.87314  0.68395  0.33662  1.0000
  C   C157      1.0  0.89380  0.70291  0.33632  1.0000
  N   N105      1.0  0.92462  0.69684  0.33614  1.0000
  C   C158      1.0  0.56825  0.33264  0.33099  1.0000
  N   N106      1.0  0.59054  0.35071  0.33553  1.0000
  C   C159      1.0  0.62217  0.34516  0.34003  1.0000
  N   N107      1.0  0.63064  0.32103  0.34063  1.0000
  C   C160      1.0  0.60937  0.30254  0.33629  1.0000
  N   N108      1.0  0.57877  0.30917  0.33148  1.0000
  C   C161      1.0  0.56970  0.67231  0.33863  1.0000
  N   N109      1.0  0.59220  0.65438  0.33835  1.0000
  C   C162      1.0  0.62381  0.66013  0.33839  1.0000
  N   N110      1.0  0.63211  0.68434  0.33866  1.0000
  C   C163      1.0  0.61057  0.70271  0.33925  1.0000
  N   N111      1.0  0.58005  0.69582  0.33916  1.0000
  C   C164      1.0  0.93480  0.33128  0.32847  1.0000
  N   N112      1.0  0.91339  0.34999  0.33255  1.0000
  C   C165      1.0  0.88149  0.34540  0.33638  1.0000
  N   N113      1.0  0.87165  0.32153  0.33682  1.0000
  C   C166      1.0  0.89207  0.30243  0.33306  1.0000
  N   N114      1.0  0.92297  0.30823  0.32890  1.0000
  C   C167      1.0  0.53347  0.09282  0.32904  1.0000
  N   N115      1.0  0.53315  0.06793  0.33241  1.0000
  C   C168      1.0  0.50530  0.05490  0.33353  1.0000
  N   N116      1.0  0.97716  0.06757  0.33199  1.0000
  C   C169      1.0  0.97630  0.09248  0.32851  1.0000
  N   N117      1.0  0.50477  0.10359  0.32717  1.0000
  C   C170      1.0  0.97308  0.91370  0.34164  1.0000
  N   N118      1.0  0.97413  0.93856  0.34104  1.0000
  C   C171      1.0  0.00231  0.95108  0.34038  1.0000
  N   N119      1.0  0.53005  0.93789  0.34032  1.0000
  C   C172      1.0  0.53014  0.91293  0.34090  1.0000
  N   N120      1.0  0.00135  0.90220  0.34150  1.0000
  C   C173      1.0  0.78115  0.59288  0.33717  1.0000
  N   N121      1.0  0.78138  0.56795  0.33762  1.0000
  C   C174      1.0  0.75384  0.55456  0.33822  1.0000
  N   N122      1.0  0.72546  0.56687  0.33838  1.0000
  C   C175      1.0  0.72410  0.59175  0.33791  1.0000
  N   N123      1.0  0.75226  0.60343  0.33735  1.0000
  C   C176      1.0  0.72258  0.41333  0.34465  1.0000
  N   N124      1.0  0.72365  0.43818  0.34300  1.0000
  C   C177      1.0  0.75182  0.45072  0.34186  1.0000
  N   N125      1.0  0.77956  0.43754  0.34187  1.0000
  C   C178      1.0  0.77966  0.41258  0.34348  1.0000
  N   N126      1.0  0.75087  0.40183  0.34490  1.0000
  C   C179      1.0  0.72095  0.17210  0.35591  1.0000
  C   C180      1.0  0.73986  0.19334  0.36387  1.0000
  N   N127      1.0  0.77140  0.19126  0.36102  1.0000
  C   C181      1.0  0.78753  0.16996  0.35285  1.0000
  H   H55       1.0  0.73084  0.21060  0.36949  1.0000
  C   C182      1.0  0.78574  0.83595  0.34342  1.0000
  C   C183      1.0  0.76745  0.85762  0.34305  1.0000
  N   N128      1.0  0.73502  0.85593  0.34218  1.0000
  C   C184      1.0  0.71890  0.83423  0.34169  1.0000
  H   H56       1.0  0.77805  0.87440  0.34314  1.0000
  C   C185      1.0  0.96963  0.67151  0.33648  1.0000
  C   C186      1.0  0.98850  0.69289  0.33688  1.0000
  N   N129      1.0  0.52002  0.69081  0.33768  1.0000
  C   C187      1.0  0.53647  0.66954  0.33804  1.0000
  H   H57       1.0  0.97953  0.71022  0.33676  1.0000
  C   C188      1.0  0.53502  0.33534  0.32745  1.0000
  C   C189      1.0  0.51662  0.35694  0.33094  1.0000
  N   N130      1.0  0.98421  0.35515  0.33064  1.0000
  C   C190      1.0  0.96816  0.33345  0.32571  1.0000
  H   H58       1.0  0.52712  0.37370  0.33599  1.0000
  C   C191      1.0  0.55571  0.13440  0.32538  1.0000
  N   N131      1.0  0.58094  0.14937  0.32882  1.0000
  H   H59       1.0  0.53399  0.14249  0.32095  1.0000
  C   C192      1.0  0.91396  0.90542  0.34240  1.0000
  N   N132      1.0  0.89100  0.88775  0.34267  1.0000
  H   H60       1.0  0.90761  0.92343  0.34237  1.0000
  C   C193      1.0  0.89750  0.14063  0.33205  1.0000
  C   C194      1.0  0.89311  0.11497  0.33518  1.0000
  N   N133      1.0  0.91898  0.09987  0.33347  1.0000
  C   C195      1.0  0.94949  0.10808  0.32802  1.0000
  H   H61       1.0  0.87097  0.10755  0.34010  1.0000
  C   C196      1.0  0.60840  0.86410  0.34051  1.0000
  C   C197      1.0  0.61306  0.88975  0.34076  1.0000
  N   N134      1.0  0.58735  0.90501  0.34080  1.0000
  C   C198      1.0  0.55668  0.89703  0.34080  1.0000
  H   H62       1.0  0.63533  0.89705  0.34073  1.0000
  C   C199      1.0  0.80332  0.63453  0.33654  1.0000
  N   N135      1.0  0.82870  0.64944  0.33645  1.0000
  H   H63       1.0  0.78150  0.64260  0.33656  1.0000
  C   C200      1.0  0.66340  0.40521  0.34233  1.0000
  N   N136      1.0  0.64036  0.38760  0.34107  1.0000
  H   H64       1.0  0.65716  0.42323  0.34023  1.0000
  C   C201      1.0  0.64795  0.64223  0.33817  1.0000
  C   C202      1.0  0.68021  0.64909  0.33786  1.0000
  N   N137      1.0  0.70261  0.63157  0.33778  1.0000
  C   C203      1.0  0.69710  0.60706  0.33801  1.0000
  H   H65       1.0  0.68748  0.66690  0.33766  1.0000
  C   C204      1.0  0.85800  0.36378  0.33925  1.0000
  C   C205      1.0  0.86264  0.38942  0.33796  1.0000
  N   N138      1.0  0.83691  0.40469  0.33960  1.0000
  C   C206      1.0  0.80625  0.39671  0.34289  1.0000
  H   H66       1.0  0.88489  0.39673  0.33509  1.0000
  C   C207      1.0  0.63616  0.22817  0.34406  1.0000
  C   C208      1.0  0.65844  0.24744  0.35276  1.0000
  N   N139      1.0  0.64847  0.27098  0.34942  1.0000
  C   C209      1.0  0.61768  0.27746  0.33796  1.0000
  H   H67       1.0  0.68207  0.24420  0.36153  1.0000
  C   C210      1.0  0.86776  0.77756  0.34134  1.0000
  C   C211      1.0  0.84492  0.75857  0.34462  1.0000
  N   N140      1.0  0.85449  0.73486  0.34256  1.0000
  C   C212      1.0  0.88539  0.72803  0.33723  1.0000
  H   H68       1.0  0.82121  0.76218  0.34874  1.0000
  C   C213      1.0  0.85245  0.26863  0.34235  1.0000
  N   N141      1.0  0.84739  0.24411  0.34383  1.0000
  H   H69       1.0  0.83362  0.28029  0.34747  1.0000
  C   C214      1.0  0.59502  0.74675  0.34390  1.0000
  N   N142      1.0  0.60422  0.77056  0.34321  1.0000
  H   H70       1.0  0.57137  0.74294  0.34809  1.0000
  C   C215      1.0  0.47487  0.99164  0.33951  1.0000
  N   N143      1.0  0.47731  0.01643  0.33777  1.0000
  H   H71       1.0  0.45281  0.98396  0.34071  1.0000
  C   C216      1.0  0.72414  0.49114  0.34225  1.0000
  N   N144      1.0  0.72636  0.51592  0.34130  1.0000
  H   H72       1.0  0.70215  0.48336  0.34419  1.0000
