data_image0
_chemical_formula_structural       C4OC4OH4N2C4OC4OH4N2C4OC4OH4N3C3O2HCHNC3O2HCHNC3O2HCHNC3O2HCHNC3O2HCHNC3O2HCHC2HC2HN2C2HC2HN2C2HC2HN2CNC2O2HCHCNC2O2HCHCNC2O2HCHCNC2O2HCHCNC2O2HCHCNC2O2HCH
_chemical_formula_sum              "C84 O30 H42 N24"
_cell_length_a       31.6901
_cell_length_b       31.69
_cell_length_c       15.0252
_cell_angle_alpha    90
_cell_angle_beta     90
_cell_angle_gamma    120

_space_group_name_H-M_alt    "P 1"
_space_group_IT_number       1

loop_
  _space_group_symop_operation_xyz
  'x, y, z'

loop_
  _atom_site_type_symbol
  _atom_site_label
  _atom_site_symmetry_multiplicity
  _atom_site_fract_x
  _atom_site_fract_y
  _atom_site_fract_z
  _atom_site_occupancy
  C   C1        1.0  0.97263  0.48645  0.33239  1.0000
  C   C2        1.0  0.86831  0.43582  0.33361  1.0000
  C   C3        1.0  0.89336  0.40945  0.33899  1.0000
  C   C4        1.0  0.94445  0.43523  0.34698  1.0000
  O   O1        1.0  0.81862  0.41209  0.33176  1.0000
  C   C5        1.0  0.02483  0.51183  0.33229  1.0000
  C   C6        1.0  0.05303  0.56306  0.34676  1.0000
  C   C7        1.0  0.10412  0.58882  0.33878  1.0000
  C   C8        1.0  0.12915  0.56244  0.33337  1.0000
  O   O2        1.0  0.17885  0.58614  0.33156  1.0000
  H   H1        1.0  0.80741  0.39950  0.39222  1.0000
  H   H2        1.0  0.19005  0.59873  0.39203  1.0000
  H   H3        1.0  0.96083  0.41505  0.35863  1.0000
  H   H4        1.0  0.03666  0.58324  0.35858  1.0000
  N   N1        1.0  0.12762  0.63817  0.33744  1.0000
  N   N2        1.0  0.86990  0.36010  0.33755  1.0000
  C   C9        1.0  0.51145  0.48579  0.33228  1.0000
  C   C10       1.0  0.56211  0.43213  0.33347  1.0000
  C   C11       1.0  0.58846  0.48355  0.33883  1.0000
  C   C12       1.0  0.56267  0.50885  0.34682  1.0000
  O   O3        1.0  0.58585  0.40618  0.33163  1.0000
  C   C13       1.0  0.48604  0.51258  0.33219  1.0000
  C   C14       1.0  0.43481  0.48952  0.34667  1.0000
  C   C15       1.0  0.40902  0.51482  0.33869  1.0000
  C   C16       1.0  0.43538  0.56624  0.33329  1.0000
  O   O4        1.0  0.41165  0.59221  0.33147  1.0000
  H   H5        1.0  0.59847  0.40758  0.39208  1.0000
  H   H6        1.0  0.39903  0.59079  0.39192  1.0000
  H   H7        1.0  0.58284  0.54541  0.35846  1.0000
  H   H8        1.0  0.41465  0.45297  0.35848  1.0000
  N   N3        1.0  0.35967  0.48892  0.33730  1.0000
  N   N4        1.0  0.63782  0.50945  0.33738  1.0000
  C   C17       1.0  0.51213  0.02526  0.33222  1.0000
  C   C18       1.0  0.56580  0.12958  0.33346  1.0000
  C   C19       1.0  0.51438  0.10452  0.33884  1.0000
  C   C20       1.0  0.48908  0.05342  0.34681  1.0000
  O   O5        1.0  0.59176  0.17928  0.33162  1.0000
  C   C21       1.0  0.48533  0.97306  0.33210  1.0000
  C   C22       1.0  0.50838  0.94488  0.34659  1.0000
  C   C23       1.0  0.48307  0.89379  0.33859  1.0000
  C   C24       1.0  0.43165  0.86874  0.33315  1.0000
  O   O6        1.0  0.40567  0.81904  0.33134  1.0000
  H   H9        1.0  0.59035  0.19048  0.39208  1.0000
  H   H10       1.0  0.40707  0.80784  0.39180  1.0000
  H   H11       1.0  0.45252  0.03703  0.35846  1.0000
  H   H12       1.0  0.54492  0.96126  0.35843  1.0000
  N   N5        1.0  0.50896  0.87033  0.33722  1.0000
  N   N6        1.0  0.48848  0.12797  0.33743  1.0000
  N   N7        1.0  0.20758  0.48029  0.27043  1.0000
  C   C25       1.0  0.24868  0.48251  0.23789  1.0000
  C   C26       1.0  0.28209  0.48231  0.30070  1.0000
  C   C27       1.0  0.25658  0.48731  0.14679  1.0000
  O   O7        1.0  0.23889  0.50711  0.10236  1.0000
  O   O8        1.0  0.26626  0.45833  0.10971  1.0000
  H   H13       1.0  0.26925  0.45663  0.05133  1.0000
  C   C28       1.0  0.33075  0.49671  0.28143  1.0000
  H   H14       1.0  0.34570  0.51554  0.22372  1.0000
  N   N8        1.0  0.51760  0.72687  0.27055  1.0000
  C   C29       1.0  0.51536  0.76571  0.23793  1.0000
  C   C30       1.0  0.51559  0.79936  0.30070  1.0000
  C   C31       1.0  0.51049  0.76875  0.14685  1.0000
  O   O9        1.0  0.49068  0.73124  0.10250  1.0000
  O   O10       1.0  0.53943  0.80740  0.10966  1.0000
  H   H15       1.0  0.54109  0.81204  0.05127  1.0000
  C   C32       1.0  0.50116  0.83359  0.28141  1.0000
  H   H16       1.0  0.48231  0.82969  0.22370  1.0000
  N   N9        1.0  0.27110  0.79022  0.27055  1.0000
  C   C33       1.0  0.23230  0.74904  0.23803  1.0000
  C   C34       1.0  0.19871  0.71568  0.30094  1.0000
  C   C35       1.0  0.22919  0.74089  0.14695  1.0000
  O   O11       1.0  0.26686  0.75889  0.10303  1.0000
  O   O12       1.0  0.19090  0.73272  0.11031  1.0000
  H   H17       1.0  0.18615  0.73005  0.05194  1.0000
  C   C36       1.0  0.16435  0.66707  0.28157  1.0000
  H   H18       1.0  0.16816  0.65210  0.22380  1.0000
  N   N10       1.0  0.78978  0.51784  0.27050  1.0000
  C   C37       1.0  0.74869  0.51561  0.23794  1.0000
  C   C38       1.0  0.71535  0.51594  0.30079  1.0000
  C   C39       1.0  0.74076  0.51076  0.14686  1.0000
  O   O13       1.0  0.75836  0.49086  0.10250  1.0000
  O   O14       1.0  0.73112  0.53975  0.10968  1.0000
  H   H19       1.0  0.72813  0.54141  0.05129  1.0000
  C   C40       1.0  0.66671  0.50162  0.28151  1.0000
  H   H20       1.0  0.65172  0.48276  0.22383  1.0000
  N   N11       1.0  0.47996  0.27147  0.27047  1.0000
  C   C41       1.0  0.48213  0.23257  0.23795  1.0000
  C   C42       1.0  0.48189  0.19893  0.30078  1.0000
  C   C43       1.0  0.48693  0.22945  0.14686  1.0000
  O   O15       1.0  0.50677  0.26693  0.10242  1.0000
  O   O16       1.0  0.45794  0.19079  0.10977  1.0000
  H   H21       1.0  0.45625  0.18611  0.05139  1.0000
  C   C44       1.0  0.49627  0.16466  0.28153  1.0000
  H   H22       1.0  0.51510  0.16853  0.22382  1.0000
  N   N12       1.0  0.72644  0.20803  0.27069  1.0000
  C   C45       1.0  0.76530  0.24913  0.23811  1.0000
  C   C46       1.0  0.79894  0.28253  0.30092  1.0000
  C   C47       1.0  0.76834  0.25708  0.14704  1.0000
  O   O17       1.0  0.73083  0.23939  0.10269  1.0000
  O   O18       1.0  0.80699  0.26680  0.10984  1.0000
  H   H23       1.0  0.81163  0.26982  0.05145  1.0000
  C   C48       1.0  0.83318  0.33119  0.28169  1.0000
  H   H24       1.0  0.82929  0.34617  0.22400  1.0000
  C   C49       1.0  0.94582  0.51089  0.31753  1.0000
  C   C50       1.0  0.89478  0.48708  0.32583  1.0000
  H   H25       1.0  0.96318  0.54735  0.30442  1.0000
  C   C51       1.0  0.10266  0.51118  0.32561  1.0000
  C   C52       1.0  0.05163  0.48738  0.31726  1.0000
  H   H26       1.0  0.03425  0.45090  0.30436  1.0000
  N   N13       1.0  0.12520  0.48445  0.32289  1.0000
  N   N14       1.0  0.87222  0.51378  0.32302  1.0000
  C   C53       1.0  0.48702  0.43453  0.31741  1.0000
  C   C54       1.0  0.51085  0.40732  0.32572  1.0000
  H   H27       1.0  0.45056  0.41541  0.30433  1.0000
  C   C55       1.0  0.48664  0.59103  0.32553  1.0000
  C   C56       1.0  0.51046  0.56382  0.31719  1.0000
  H   H28       1.0  0.54694  0.58295  0.30430  1.0000
  N   N15       1.0  0.51337  0.64031  0.32289  1.0000
  N   N16       1.0  0.48415  0.35805  0.32295  1.0000
  C   C57       1.0  0.56339  0.05209  0.31735  1.0000
  C   C58       1.0  0.59060  0.10312  0.32567  1.0000
  H   H29       1.0  0.58250  0.03473  0.30426  1.0000
  C   C59       1.0  0.40687  0.89521  0.32537  1.0000
  C   C60       1.0  0.43409  0.94625  0.31706  1.0000
  H   H30       1.0  0.41497  0.96362  0.30416  1.0000
  N   N17       1.0  0.35760  0.87268  0.32269  1.0000
  N   N18       1.0  0.63987  0.12567  0.32299  1.0000
  C   C61       1.0  0.19614  0.47767  0.35810  1.0000
  N   N19       1.0  0.26974  0.47778  0.38818  1.0000
  C   C62       1.0  0.22848  0.47514  0.42033  1.0000
  C   C63       1.0  0.22312  0.47316  0.51210  1.0000
  O   O19       1.0  0.25128  0.50963  0.55378  1.0000
  O   O20       1.0  0.18410  0.44572  0.54953  1.0000
  H   H31       1.0  0.16029  0.41872  0.52557  1.0000
  C   C64       1.0  0.15977  0.48861  0.38085  1.0000
  H   H32       1.0  0.16173  0.50403  0.44177  1.0000
  C   C65       1.0  0.52034  0.71810  0.35822  1.0000
  N   N20       1.0  0.52015  0.79158  0.38818  1.0000
  C   C66       1.0  0.52283  0.75299  0.42037  1.0000
  C   C67       1.0  0.52475  0.74961  0.51209  1.0000
  O   O21       1.0  0.48838  0.74141  0.55399  1.0000
  O   O22       1.0  0.55186  0.73771  0.54990  1.0000
  H   H33       1.0  0.57878  0.74062  0.52614  1.0000
  C   C68       1.0  0.50916  0.67070  0.38081  1.0000
  H   H34       1.0  0.49367  0.65723  0.44168  1.0000
  C   C69       1.0  0.27984  0.80184  0.35818  1.0000
  N   N21       1.0  0.20640  0.72815  0.38836  1.0000
  C   C70       1.0  0.24498  0.76948  0.42040  1.0000
  C   C71       1.0  0.24828  0.77500  0.51210  1.0000
  O   O23       1.0  0.25635  0.74687  0.55444  1.0000
  O   O24       1.0  0.26014  0.81409  0.54957  1.0000
  H   H35       1.0  0.25728  0.83806  0.52549  1.0000
  C   C72       1.0  0.32721  0.83814  0.38072  1.0000
  H   H36       1.0  0.34068  0.83618  0.44163  1.0000
  C   C73       1.0  0.80127  0.52054  0.35816  1.0000
  N   N22       1.0  0.72771  0.52057  0.38826  1.0000
  C   C74       1.0  0.76895  0.52316  0.42037  1.0000
  C   C75       1.0  0.77435  0.52533  0.51210  1.0000
  O   O25       1.0  0.74758  0.48783  0.55257  1.0000
  O   O26       1.0  0.81343  0.55263  0.54937  1.0000
  H   H37       1.0  0.83677  0.58015  0.52606  1.0000
  C   C76       1.0  0.83764  0.50963  0.38095  1.0000
  H   H38       1.0  0.83570  0.49428  0.44194  1.0000
  C   C77       1.0  0.47735  0.28031  0.35813  1.0000
  N   N23       1.0  0.47736  0.20677  0.38826  1.0000
  C   C78       1.0  0.47477  0.24542  0.42037  1.0000
  C   C79       1.0  0.47277  0.24881  0.51215  1.0000
  O   O27       1.0  0.50924  0.25712  0.55384  1.0000
  O   O28       1.0  0.44533  0.26040  0.54953  1.0000
  H   H39       1.0  0.41835  0.25722  0.52554  1.0000
  C   C80       1.0  0.48839  0.32765  0.38083  1.0000
  H   H40       1.0  0.50373  0.34107  0.44182  1.0000
  C   C81       1.0  0.71767  0.19650  0.35835  1.0000
  N   N24       1.0  0.79116  0.27015  0.38838  1.0000
  C   C82       1.0  0.75256  0.22887  0.42052  1.0000
  C   C83       1.0  0.74917  0.22353  0.51225  1.0000
  O   O29       1.0  0.74095  0.25169  0.55418  1.0000
  O   O30       1.0  0.73727  0.18451  0.55000  1.0000
  H   H41       1.0  0.74019  0.16051  0.52620  1.0000
  C   C84       1.0  0.67027  0.16028  0.38089  1.0000
  H   H42       1.0  0.65682  0.16228  0.44181  1.0000
