data_image0
_chemical_formula_structural       C3NC3NC5NC5NC20H18CHCHCHCHC8H12C24H15NHNHNHC24H15NHNHNH
_chemical_formula_sum              "C96 N10 H70"
_cell_length_a       36.0368
_cell_length_b       26.4691
_cell_length_c       15.0112
_cell_angle_alpha    89.9684
_cell_angle_beta     90.0232
_cell_angle_gamma    90.0185

_space_group_name_H-M_alt    "P 1"
_space_group_IT_number       1

loop_
  _space_group_symop_operation_xyz
  'x, y, z'

loop_
  _atom_site_type_symbol
  _atom_site_label
  _atom_site_symmetry_multiplicity
  _atom_site_fract_x
  _atom_site_fract_y
  _atom_site_fract_z
  _atom_site_occupancy
  C   C1        1.0  0.94905  0.84272  0.33293  1.0000
  C   C2        1.0  0.98716  0.83818  0.33544  1.0000
  C   C3        1.0  0.00251  0.88667  0.33404  1.0000
  N   N1        1.0  0.97319  0.91868  0.33061  1.0000
  C   C4        1.0  0.94017  0.89410  0.32973  1.0000
  C   C5        1.0  0.90346  0.91388  0.32684  1.0000
  C   C6        1.0  0.89447  0.96605  0.32911  1.0000
  N   N2        1.0  0.91817  0.00548  0.33418  1.0000
  C   C7        1.0  0.90007  0.05013  0.33550  1.0000
  C   C8        1.0  0.86228  0.03863  0.33133  1.0000
  C   C9        1.0  0.85884  0.98677  0.32662  1.0000
  C   C10       1.0  0.91576  0.09923  0.33933  1.0000
  C   C11       1.0  0.95443  0.11012  0.33979  1.0000
  N   N3        1.0  0.98378  0.07812  0.33996  1.0000
  C   C12       1.0  0.01679  0.10275  0.34015  1.0000
  C   C13       1.0  0.00788  0.15413  0.33921  1.0000
  C   C14       1.0  0.96975  0.15864  0.33941  1.0000
  C   C15       1.0  0.05350  0.08297  0.34101  1.0000
  C   C16       1.0  0.06249  0.03078  0.33966  1.0000
  N   N4        1.0  0.03878  0.99129  0.33662  1.0000
  C   C17       1.0  0.05688  0.94663  0.33720  1.0000
  C   C18       1.0  0.09468  0.95817  0.34056  1.0000
  C   C19       1.0  0.09813  0.01008  0.34240  1.0000
  C   C20       1.0  0.04117  0.89751  0.33615  1.0000
  C   C21       1.0  0.06612  0.85591  0.33860  1.0000
  C   C22       1.0  0.07894  0.83395  0.25866  1.0000
  C   C23       1.0  0.10196  0.79109  0.26110  1.0000
  C   C24       1.0  0.11259  0.76921  0.34322  1.0000
  C   C25       1.0  0.08353  0.11788  0.34580  1.0000
  C   C26       1.0  0.10474  0.12961  0.26945  1.0000
  C   C27       1.0  0.13459  0.16374  0.27511  1.0000
  C   C28       1.0  0.14355  0.18767  0.35662  1.0000
  C   C29       1.0  0.89081  0.14081  0.34202  1.0000
  C   C30       1.0  0.84492  0.22807  0.34785  1.0000
  C   C31       1.0  0.85574  0.20680  0.26542  1.0000
  C   C32       1.0  0.87844  0.16363  0.26237  1.0000
  C   C33       1.0  0.87354  0.87887  0.32047  1.0000
  C   C34       1.0  0.86582  0.85483  0.23856  1.0000
  C   C35       1.0  0.83757  0.81833  0.23271  1.0000
  C   C36       1.0  0.81614  0.80534  0.30826  1.0000
  H   H1        1.0  0.83313  0.80082  0.17291  1.0000
  H   H2        1.0  0.88120  0.86299  0.18305  1.0000
  H   H3        1.0  0.93109  0.81283  0.33418  1.0000
  H   H4        1.0  0.00099  0.80450  0.33835  1.0000
  H   H5        1.0  0.97559  0.95476  0.32729  1.0000
  H   H6        1.0  0.98141  0.04201  0.34194  1.0000
  H   H7        1.0  0.83418  0.96786  0.32234  1.0000
  H   H8        1.0  0.84055  0.06343  0.33036  1.0000
  H   H9        1.0  0.88657  0.14972  0.20182  1.0000
  H   H10       1.0  0.84801  0.22349  0.20678  1.0000
  H   H11       1.0  0.95588  0.19232  0.33864  1.0000
  H   H12       1.0  0.02582  0.18404  0.33837  1.0000
  H   H13       1.0  0.11641  0.93339  0.34279  1.0000
  H   H14       1.0  0.12280  0.02901  0.34612  1.0000
  H   H15       1.0  0.09876  0.11310  0.20946  1.0000
  H   H16       1.0  0.14977  0.17101  0.21899  1.0000
  H   H17       1.0  0.11004  0.77503  0.20223  1.0000
  H   H18       1.0  0.07097  0.84834  0.19829  1.0000
  C   C37       1.0  0.17505  0.22397  0.36219  1.0000
  H   H19       1.0  0.20062  0.20474  0.34237  1.0000
  C   C38       1.0  0.13463  0.72172  0.34426  1.0000
  H   H20       1.0  0.12051  0.69416  0.30176  1.0000
  C   C39       1.0  0.78732  0.76513  0.30335  1.0000
  H   H21       1.0  0.78559  0.75004  0.23558  1.0000
  C   C40       1.0  0.82326  0.27587  0.34956  1.0000
  H   H22       1.0  0.83814  0.30376  0.30927  1.0000
  C   C41       1.0  0.10000  0.79179  0.42306  1.0000
  C   C42       1.0  0.07705  0.83474  0.42089  1.0000
  C   C43       1.0  0.12222  0.17556  0.43284  1.0000
  C   C44       1.0  0.09269  0.14096  0.42770  1.0000
  C   C45       1.0  0.87976  0.16142  0.42460  1.0000
  C   C46       1.0  0.85709  0.20463  0.42737  1.0000
  C   C47       1.0  0.85198  0.86645  0.39596  1.0000
  C   C48       1.0  0.82338  0.83041  0.38962  1.0000
  H   H23       1.0  0.80844  0.82158  0.44547  1.0000
  H   H24       1.0  0.85722  0.88315  0.45616  1.0000
  H   H25       1.0  0.88884  0.14583  0.48311  1.0000
  H   H26       1.0  0.85012  0.21942  0.48806  1.0000
  H   H27       1.0  0.07784  0.13286  0.48407  1.0000
  H   H28       1.0  0.12806  0.19179  0.49308  1.0000
  H   H29       1.0  0.06775  0.84981  0.47959  1.0000
  H   H30       1.0  0.10690  0.77660  0.48352  1.0000
  H   H31       1.0  0.17853  0.23639  0.43115  1.0000
  H   H32       1.0  0.13518  0.70585  0.41161  1.0000
  H   H33       1.0  0.76043  0.78213  0.31880  1.0000
  H   H34       1.0  0.82202  0.29079  0.41749  1.0000
  C   C49       1.0  0.25306  0.45224  0.32904  1.0000
  C   C50       1.0  0.29233  0.45209  0.33281  1.0000
  C   C51       1.0  0.31324  0.49730  0.33642  1.0000
  C   C52       1.0  0.29402  0.54386  0.33468  1.0000
  C   C53       1.0  0.25492  0.54577  0.32929  1.0000
  C   C54       1.0  0.23501  0.49973  0.32792  1.0000
  C   C55       1.0  0.35275  0.49597  0.34115  1.0000
  C   C56       1.0  0.37365  0.46448  0.28375  1.0000
  C   C57       1.0  0.41259  0.46271  0.28943  1.0000
  C   C58       1.0  0.43156  0.49233  0.35301  1.0000
  C   C59       1.0  0.41104  0.52372  0.41047  1.0000
  C   C60       1.0  0.37211  0.52564  0.40445  1.0000
  C   C61       1.0  0.23227  0.40606  0.32492  1.0000
  C   C62       1.0  0.24316  0.36273  0.37387  1.0000
  C   C63       1.0  0.22317  0.31717  0.36822  1.0000
  C   C64       1.0  0.19104  0.31336  0.31444  1.0000
  C   C65       1.0  0.17984  0.35660  0.26639  1.0000
  C   C66       1.0  0.20020  0.40185  0.27076  1.0000
  C   C67       1.0  0.23583  0.59278  0.32307  1.0000
  C   C68       1.0  0.20845  0.60025  0.25670  1.0000
  C   C69       1.0  0.18839  0.64568  0.25202  1.0000
  C   C70       1.0  0.19497  0.68471  0.31417  1.0000
  C   C71       1.0  0.22296  0.67819  0.37875  1.0000
  C   C72       1.0  0.24320  0.63276  0.38316  1.0000
  H   H35       1.0  0.23248  0.28687  0.40393  1.0000
  H   H36       1.0  0.26570  0.36393  0.41526  1.0000
  H   H37       1.0  0.15685  0.35509  0.22640  1.0000
  H   H38       1.0  0.19157  0.43150  0.23223  1.0000
  H   H39       1.0  0.20279  0.57258  0.21105  1.0000
  H   H40       1.0  0.16844  0.64986  0.20409  1.0000
  H   H41       1.0  0.26252  0.62852  0.43260  1.0000
  H   H42       1.0  0.22799  0.70600  0.42452  1.0000
  H   H43       1.0  0.35797  0.54825  0.44809  1.0000
  H   H44       1.0  0.42437  0.54523  0.45718  1.0000
  H   H45       1.0  0.42711  0.43972  0.24724  1.0000
  H   H46       1.0  0.36073  0.44296  0.23634  1.0000
  H   H47       1.0  0.30613  0.41830  0.33279  1.0000
  H   H48       1.0  0.20661  0.50100  0.32772  1.0000
  H   H49       1.0  0.30881  0.57692  0.33376  1.0000
  N   N5        1.0  0.47055  0.49135  0.36162  1.0000
  H   H50       1.0  0.47817  0.45462  0.37463  1.0000
  N   N6        1.0  0.17364  0.72959  0.31481  1.0000
  H   H51       1.0  0.17465  0.74546  0.25240  1.0000
  N   N7        1.0  0.16885  0.26914  0.30503  1.0000
  H   H52       1.0  0.17039  0.25824  0.23943  1.0000
  C   C73       1.0  0.70641  0.54659  0.33466  1.0000
  C   C74       1.0  0.66725  0.54781  0.33037  1.0000
  C   C75       1.0  0.64610  0.50297  0.32187  1.0000
  C   C76       1.0  0.66512  0.45618  0.32007  1.0000
  C   C77       1.0  0.70424  0.45372  0.32416  1.0000
  C   C78       1.0  0.72446  0.49928  0.33107  1.0000
  C   C79       1.0  0.60668  0.50494  0.31300  1.0000
  C   C80       1.0  0.58500  0.53634  0.36888  1.0000
  C   C81       1.0  0.54618  0.53828  0.35992  1.0000
  C   C82       1.0  0.52803  0.50881  0.29475  1.0000
  C   C83       1.0  0.54932  0.47779  0.23834  1.0000
  C   C84       1.0  0.58814  0.47586  0.24739  1.0000
  C   C85       1.0  0.72750  0.59188  0.34079  1.0000
  C   C86       1.0  0.72083  0.62732  0.40949  1.0000
  C   C87       1.0  0.74307  0.67082  0.41784  1.0000
  C   C88       1.0  0.77183  0.68039  0.35653  1.0000
  C   C89       1.0  0.77826  0.64548  0.28709  1.0000
  C   C90       1.0  0.75650  0.60162  0.27964  1.0000
  C   C91       1.0  0.72317  0.40665  0.31960  1.0000
  C   C92       1.0  0.75198  0.39936  0.25692  1.0000
  C   C93       1.0  0.77186  0.35375  0.25425  1.0000
  C   C94       1.0  0.76378  0.31453  0.31509  1.0000
  C   C95       1.0  0.73452  0.32108  0.37628  1.0000
  C   C96       1.0  0.71434  0.36660  0.37842  1.0000
  H   H53       1.0  0.73825  0.69548  0.46898  1.0000
  H   H54       1.0  0.70046  0.62097  0.45567  1.0000
  H   H55       1.0  0.79932  0.65147  0.24263  1.0000
  H   H56       1.0  0.76199  0.57689  0.22891  1.0000
  H   H57       1.0  0.75875  0.42725  0.21251  1.0000
  H   H58       1.0  0.79271  0.34951  0.20866  1.0000
  H   H59       1.0  0.69396  0.37087  0.42529  1.0000
  H   H60       1.0  0.72833  0.29309  0.42091  1.0000
  H   H61       1.0  0.60281  0.45344  0.20446  1.0000
  H   H62       1.0  0.53662  0.45637  0.19049  1.0000
  H   H63       1.0  0.53109  0.56095  0.40152  1.0000
  H   H64       1.0  0.59722  0.55749  0.41783  1.0000
  H   H65       1.0  0.65409  0.58211  0.32937  1.0000
  H   H66       1.0  0.75282  0.49791  0.33566  1.0000
  H   H67       1.0  0.65031  0.42329  0.31447  1.0000
  N   N8        1.0  0.48908  0.50909  0.28442  1.0000
  H   H68       1.0  0.48127  0.54570  0.27104  1.0000
  N   N9        1.0  0.78453  0.26916  0.31709  1.0000
  H   H69       1.0  0.78409  0.25357  0.25446  1.0000
  N   N10       1.0  0.79447  0.72358  0.36793  1.0000
  H   H70       1.0  0.82181  0.71249  0.36625  1.0000
