data_image0
_chemical_formula_structural       H2CNHCNHCNHC6H3C6H3C3NC3H5C3NC3H5C3NC3H4CNHCNHCNHC6H3C6H3C3NC3H5C3NC3H5C3NC3H4CNHCNHCNHC6H3C6H3C3NC3H5C3NC3H5C3NC3H5CNHCNHCNHC6H3C6H3C3NC3H5C3NC3H5C3NC3H5
_chemical_formula_sum              "H96 C132 N24"
_cell_length_a       29.7055
_cell_length_b       29.7054
_cell_length_c       14.99
_cell_angle_alpha    90
_cell_angle_beta     90
_cell_angle_gamma    120

_space_group_name_H-M_alt    "P 1"
_space_group_IT_number       1

loop_
  _space_group_symop_operation_xyz
  'x, y, z'

loop_
  _atom_site_type_symbol
  _atom_site_label
  _atom_site_symmetry_multiplicity
  _atom_site_fract_x
  _atom_site_fract_y
  _atom_site_fract_z
  _atom_site_occupancy
  H   H1        1.0  0.00788  0.20051  0.56199  1.0000
  H   H2        1.0  0.00788  0.70051  0.56199  1.0000
  C   C1        1.0  0.22690  0.20195  0.32302  1.0000
  N   N1        1.0  0.20102  0.22865  0.32095  1.0000
  H   H3        1.0  0.20780  0.16598  0.29477  1.0000
  C   C2        1.0  0.29886  0.02512  0.32299  1.0000
  N   N2        1.0  0.27216  0.47254  0.32092  1.0000
  H   H4        1.0  0.33484  0.04198  0.29481  1.0000
  C   C3        1.0  0.47568  0.27390  0.32285  1.0000
  N   N3        1.0  0.02827  0.29980  0.32085  1.0000
  H   H5        1.0  0.45882  0.29307  0.29486  1.0000
  C   C4        1.0  0.11158  0.30569  0.34525  1.0000
  C   C5        1.0  0.13974  0.36070  0.34507  1.0000
  C   C6        1.0  0.19474  0.38923  0.34531  1.0000
  C   C7        1.0  0.22159  0.36107  0.34514  1.0000
  C   C8        1.0  0.19512  0.30606  0.34534  1.0000
  C   C9        1.0  0.14011  0.27921  0.34506  1.0000
  H   H6        1.0  0.26140  0.38109  0.34589  1.0000
  H   H7        1.0  0.12032  0.23941  0.34580  1.0000
  H   H8        1.0  0.11972  0.38048  0.34576  1.0000
  C   C10       1.0  0.39022  0.19464  0.35284  1.0000
  C   C11       1.0  0.36018  0.13964  0.35087  1.0000
  C   C12       1.0  0.30504  0.11058  0.35287  1.0000
  C   C13       1.0  0.28008  0.14062  0.35094  1.0000
  C   C14       1.0  0.30617  0.19576  0.35291  1.0000
  C   C15       1.0  0.36117  0.22073  0.35091  1.0000
  H   H9        1.0  0.24089  0.12118  0.34652  1.0000
  H   H10       1.0  0.38090  0.25991  0.34643  1.0000
  H   H11       1.0  0.37963  0.11990  0.34642  1.0000
  C   C16       1.0  0.29949  0.27620  0.38862  1.0000
  C   C17       1.0  0.27888  0.22435  0.35504  1.0000
  C   C18       1.0  0.22273  0.27875  0.34774  1.0000
  N   N4        1.0  0.27158  0.30090  0.38107  1.0000
  C   C19       1.0  0.34711  0.30580  0.44331  1.0000
  C   C20       1.0  0.33998  0.32243  0.53744  1.0000
  C   C21       1.0  0.35573  0.28097  0.52714  1.0000
  H   H12       1.0  0.38193  0.33605  0.41025  1.0000
  H   H13       1.0  0.39615  0.29345  0.54305  1.0000
  H   H14       1.0  0.32551  0.24144  0.54371  1.0000
  H   H15       1.0  0.30047  0.30757  0.56227  1.0000
  H   H16       1.0  0.37091  0.35993  0.56151  1.0000
  C   C22       1.0  0.22457  0.02347  0.38839  1.0000
  C   C23       1.0  0.27645  0.05470  0.35497  1.0000
  C   C24       1.0  0.22205  0.44415  0.34764  1.0000
  N   N5        1.0  0.19990  0.47086  0.38092  1.0000
  C   C25       1.0  0.19501  0.04144  0.44332  1.0000
  C   C26       1.0  0.17844  0.01763  0.53742  1.0000
  C   C27       1.0  0.21991  0.07483  0.52717  1.0000
  H   H17       1.0  0.16475  0.04607  0.41040  1.0000
  H   H18       1.0  0.20746  0.10278  0.54326  1.0000
  H   H19       1.0  0.25944  0.08411  0.54364  1.0000
  H   H20       1.0  0.19329  0.49294  0.56210  1.0000
  H   H21       1.0  0.14096  0.01106  0.56161  1.0000
  C   C28       1.0  0.47733  0.20126  0.38828  1.0000
  C   C29       1.0  0.44610  0.22192  0.35488  1.0000
  C   C30       1.0  0.05666  0.27808  0.34756  1.0000
  N   N6        1.0  0.02994  0.22920  0.38081  1.0000
  C   C31       1.0  0.45937  0.15373  0.44322  1.0000
  C   C32       1.0  0.48319  0.16097  0.53731  1.0000
  C   C33       1.0  0.42599  0.14525  0.52708  1.0000
  H   H22       1.0  0.45473  0.11884  0.41030  1.0000
  H   H23       1.0  0.39804  0.10485  0.54317  1.0000
  H   H24       1.0  0.41671  0.17550  0.54356  1.0000
  H   H25       1.0  0.48976  0.13006  0.56149  1.0000
  C   C34       1.0  0.22690  0.70195  0.32302  1.0000
  N   N7        1.0  0.20102  0.72865  0.32095  1.0000
  H   H26       1.0  0.20780  0.66599  0.29477  1.0000
  C   C35       1.0  0.29886  0.52512  0.32299  1.0000
  N   N8        1.0  0.27216  0.97254  0.32092  1.0000
  H   H27       1.0  0.33484  0.54198  0.29481  1.0000
  C   C36       1.0  0.47568  0.77390  0.32285  1.0000
  N   N9        1.0  0.02827  0.79980  0.32085  1.0000
  H   H28       1.0  0.45882  0.79307  0.29486  1.0000
  C   C37       1.0  0.11158  0.80569  0.34525  1.0000
  C   C38       1.0  0.13974  0.86070  0.34507  1.0000
  C   C39       1.0  0.19474  0.88923  0.34531  1.0000
  C   C40       1.0  0.22159  0.86107  0.34514  1.0000
  C   C41       1.0  0.19512  0.80606  0.34534  1.0000
  C   C42       1.0  0.14011  0.77921  0.34506  1.0000
  H   H29       1.0  0.26140  0.88109  0.34589  1.0000
  H   H30       1.0  0.12032  0.73941  0.34580  1.0000
  H   H31       1.0  0.11972  0.88049  0.34576  1.0000
  C   C43       1.0  0.39022  0.69464  0.35284  1.0000
  C   C44       1.0  0.36018  0.63963  0.35087  1.0000
  C   C45       1.0  0.30504  0.61058  0.35287  1.0000
  C   C46       1.0  0.28008  0.64062  0.35094  1.0000
  C   C47       1.0  0.30617  0.69576  0.35291  1.0000
  C   C48       1.0  0.36117  0.72073  0.35091  1.0000
  H   H32       1.0  0.24089  0.62118  0.34652  1.0000
  H   H33       1.0  0.38090  0.75991  0.34643  1.0000
  H   H34       1.0  0.37963  0.61990  0.34642  1.0000
  C   C49       1.0  0.29949  0.77620  0.38862  1.0000
  C   C50       1.0  0.27888  0.72435  0.35504  1.0000
  C   C51       1.0  0.22273  0.77875  0.34774  1.0000
  N   N10       1.0  0.27158  0.80090  0.38107  1.0000
  C   C52       1.0  0.34711  0.80580  0.44331  1.0000
  C   C53       1.0  0.33998  0.82243  0.53744  1.0000
  C   C54       1.0  0.35573  0.78097  0.52714  1.0000
  H   H35       1.0  0.38193  0.83606  0.41025  1.0000
  H   H36       1.0  0.39615  0.79345  0.54305  1.0000
  H   H37       1.0  0.32551  0.74145  0.54371  1.0000
  H   H38       1.0  0.30047  0.80758  0.56227  1.0000
  H   H39       1.0  0.37090  0.85993  0.56151  1.0000
  C   C55       1.0  0.22457  0.52348  0.38839  1.0000
  C   C56       1.0  0.27645  0.55470  0.35497  1.0000
  C   C57       1.0  0.22205  0.94415  0.34764  1.0000
  N   N11       1.0  0.19990  0.97086  0.38092  1.0000
  C   C58       1.0  0.19501  0.54144  0.44332  1.0000
  C   C59       1.0  0.17844  0.51763  0.53742  1.0000
  C   C60       1.0  0.21991  0.57483  0.52717  1.0000
  H   H40       1.0  0.16475  0.54607  0.41040  1.0000
  H   H41       1.0  0.20746  0.60278  0.54326  1.0000
  H   H42       1.0  0.25944  0.58411  0.54364  1.0000
  H   H43       1.0  0.19329  0.99294  0.56210  1.0000
  H   H44       1.0  0.14096  0.51106  0.56161  1.0000
  C   C61       1.0  0.47733  0.70126  0.38828  1.0000
  C   C62       1.0  0.44610  0.72192  0.35488  1.0000
  C   C63       1.0  0.05666  0.77807  0.34756  1.0000
  N   N12       1.0  0.02994  0.72920  0.38081  1.0000
  C   C64       1.0  0.45937  0.65373  0.44322  1.0000
  C   C65       1.0  0.48319  0.66097  0.53731  1.0000
  C   C66       1.0  0.42599  0.64525  0.52708  1.0000
  H   H45       1.0  0.45473  0.61884  0.41030  1.0000
  H   H46       1.0  0.39804  0.60485  0.54317  1.0000
  H   H47       1.0  0.41671  0.67550  0.54356  1.0000
  H   H48       1.0  0.48976  0.63006  0.56149  1.0000
  C   C67       1.0  0.72690  0.20195  0.32302  1.0000
  N   N13       1.0  0.70102  0.22865  0.32095  1.0000
  H   H49       1.0  0.70779  0.16598  0.29477  1.0000
  C   C68       1.0  0.79886  0.02512  0.32299  1.0000
  N   N14       1.0  0.77216  0.47254  0.32092  1.0000
  H   H50       1.0  0.83484  0.04198  0.29481  1.0000
  C   C69       1.0  0.97568  0.27390  0.32285  1.0000
  N   N15       1.0  0.52827  0.29980  0.32085  1.0000
  H   H51       1.0  0.95882  0.29307  0.29486  1.0000
  C   C70       1.0  0.61158  0.30569  0.34525  1.0000
  C   C71       1.0  0.63974  0.36070  0.34507  1.0000
  C   C72       1.0  0.69474  0.38923  0.34531  1.0000
  C   C73       1.0  0.72159  0.36107  0.34514  1.0000
  C   C74       1.0  0.69512  0.30606  0.34534  1.0000
  C   C75       1.0  0.64011  0.27921  0.34506  1.0000
  H   H52       1.0  0.76140  0.38109  0.34589  1.0000
  H   H53       1.0  0.62033  0.23941  0.34580  1.0000
  H   H54       1.0  0.61972  0.38048  0.34576  1.0000
  C   C76       1.0  0.89022  0.19464  0.35284  1.0000
  C   C77       1.0  0.86019  0.13964  0.35087  1.0000
  C   C78       1.0  0.80504  0.11058  0.35287  1.0000
  C   C79       1.0  0.78008  0.14062  0.35094  1.0000
  C   C80       1.0  0.80617  0.19576  0.35291  1.0000
  C   C81       1.0  0.86117  0.22073  0.35091  1.0000
  H   H55       1.0  0.74089  0.12118  0.34652  1.0000
  H   H56       1.0  0.88090  0.25991  0.34643  1.0000
  H   H57       1.0  0.87963  0.11990  0.34642  1.0000
  C   C82       1.0  0.79949  0.27620  0.38862  1.0000
  C   C83       1.0  0.77888  0.22435  0.35504  1.0000
  C   C84       1.0  0.72273  0.27875  0.34774  1.0000
  N   N16       1.0  0.77158  0.30090  0.38107  1.0000
  C   C85       1.0  0.84711  0.30580  0.44331  1.0000
  C   C86       1.0  0.83998  0.32243  0.53744  1.0000
  C   C87       1.0  0.85572  0.28097  0.52714  1.0000
  H   H58       1.0  0.88193  0.33605  0.41025  1.0000
  H   H59       1.0  0.89615  0.29345  0.54305  1.0000
  H   H60       1.0  0.82551  0.24144  0.54371  1.0000
  H   H61       1.0  0.80047  0.30757  0.56227  1.0000
  H   H62       1.0  0.87091  0.35993  0.56151  1.0000
  C   C88       1.0  0.72456  0.02347  0.38839  1.0000
  C   C89       1.0  0.77645  0.05470  0.35497  1.0000
  C   C90       1.0  0.72205  0.44415  0.34764  1.0000
  N   N17       1.0  0.69990  0.47086  0.38092  1.0000
  C   C91       1.0  0.69501  0.04144  0.44332  1.0000
  C   C92       1.0  0.67844  0.01763  0.53742  1.0000
  C   C93       1.0  0.71991  0.07483  0.52717  1.0000
  H   H63       1.0  0.66475  0.04607  0.41040  1.0000
  H   H64       1.0  0.70746  0.10278  0.54326  1.0000
  H   H65       1.0  0.75944  0.08411  0.54364  1.0000
  H   H66       1.0  0.69329  0.49294  0.56210  1.0000
  H   H67       1.0  0.64096  0.01106  0.56161  1.0000
  C   C94       1.0  0.97733  0.20126  0.38828  1.0000
  C   C95       1.0  0.94610  0.22192  0.35488  1.0000
  C   C96       1.0  0.55666  0.27808  0.34756  1.0000
  N   N18       1.0  0.52994  0.22920  0.38081  1.0000
  C   C97       1.0  0.95937  0.15373  0.44322  1.0000
  C   C98       1.0  0.98319  0.16097  0.53731  1.0000
  C   C99       1.0  0.92599  0.14525  0.52708  1.0000
  H   H68       1.0  0.95473  0.11884  0.41030  1.0000
  H   H69       1.0  0.89804  0.10485  0.54317  1.0000
  H   H70       1.0  0.91671  0.17550  0.54356  1.0000
  H   H71       1.0  0.50788  0.20051  0.56199  1.0000
  H   H72       1.0  0.98976  0.13006  0.56149  1.0000
  C   C100      1.0  0.72690  0.70195  0.32302  1.0000
  N   N19       1.0  0.70102  0.72865  0.32095  1.0000
  H   H73       1.0  0.70780  0.66599  0.29477  1.0000
  C   C101      1.0  0.79886  0.52512  0.32299  1.0000
  N   N20       1.0  0.77216  0.97254  0.32092  1.0000
  H   H74       1.0  0.83484  0.54198  0.29481  1.0000
  C   C102      1.0  0.97568  0.77390  0.32285  1.0000
  N   N21       1.0  0.52827  0.79980  0.32085  1.0000
  H   H75       1.0  0.95882  0.79307  0.29486  1.0000
  C   C103      1.0  0.61158  0.80569  0.34525  1.0000
  C   C104      1.0  0.63974  0.86070  0.34507  1.0000
  C   C105      1.0  0.69474  0.88923  0.34531  1.0000
  C   C106      1.0  0.72159  0.86107  0.34514  1.0000
  C   C107      1.0  0.69512  0.80606  0.34534  1.0000
  C   C108      1.0  0.64011  0.77921  0.34506  1.0000
  H   H76       1.0  0.76140  0.88109  0.34589  1.0000
  H   H77       1.0  0.62033  0.73941  0.34580  1.0000
  H   H78       1.0  0.61972  0.88049  0.34576  1.0000
  C   C109      1.0  0.89022  0.69464  0.35284  1.0000
  C   C110      1.0  0.86018  0.63963  0.35087  1.0000
  C   C111      1.0  0.80504  0.61058  0.35287  1.0000
  C   C112      1.0  0.78007  0.64062  0.35094  1.0000
  C   C113      1.0  0.80617  0.69576  0.35291  1.0000
  C   C114      1.0  0.86117  0.72073  0.35091  1.0000
  H   H79       1.0  0.74089  0.62118  0.34652  1.0000
  H   H80       1.0  0.88090  0.75991  0.34643  1.0000
  H   H81       1.0  0.87963  0.61990  0.34642  1.0000
  C   C115      1.0  0.79949  0.77620  0.38862  1.0000
  C   C116      1.0  0.77888  0.72435  0.35504  1.0000
  C   C117      1.0  0.72273  0.77875  0.34774  1.0000
  N   N22       1.0  0.77158  0.80090  0.38107  1.0000
  C   C118      1.0  0.84710  0.80580  0.44331  1.0000
  C   C119      1.0  0.83998  0.82243  0.53744  1.0000
  C   C120      1.0  0.85573  0.78097  0.52714  1.0000
  H   H82       1.0  0.88193  0.83606  0.41025  1.0000
  H   H83       1.0  0.89615  0.79345  0.54305  1.0000
  H   H84       1.0  0.82551  0.74145  0.54371  1.0000
  H   H85       1.0  0.80047  0.80758  0.56227  1.0000
  H   H86       1.0  0.87090  0.85993  0.56151  1.0000
  C   C121      1.0  0.72457  0.52348  0.38839  1.0000
  C   C122      1.0  0.77645  0.55470  0.35497  1.0000
  C   C123      1.0  0.72205  0.94415  0.34764  1.0000
  N   N23       1.0  0.69990  0.97086  0.38092  1.0000
  C   C124      1.0  0.69500  0.54144  0.44332  1.0000
  C   C125      1.0  0.67844  0.51763  0.53742  1.0000
  C   C126      1.0  0.71991  0.57483  0.52717  1.0000
  H   H87       1.0  0.66475  0.54607  0.41040  1.0000
  H   H88       1.0  0.70746  0.60278  0.54326  1.0000
  H   H89       1.0  0.75944  0.58411  0.54364  1.0000
  H   H90       1.0  0.69329  0.99294  0.56210  1.0000
  H   H91       1.0  0.64096  0.51106  0.56161  1.0000
  C   C127      1.0  0.97733  0.70126  0.38828  1.0000
  C   C128      1.0  0.94610  0.72192  0.35488  1.0000
  C   C129      1.0  0.55666  0.77807  0.34756  1.0000
  N   N24       1.0  0.52994  0.72920  0.38081  1.0000
  C   C130      1.0  0.95936  0.65373  0.44322  1.0000
  C   C131      1.0  0.98319  0.66097  0.53731  1.0000
  C   C132      1.0  0.92599  0.64525  0.52708  1.0000
  H   H92       1.0  0.95473  0.61884  0.41030  1.0000
  H   H93       1.0  0.89804  0.60485  0.54317  1.0000
  H   H94       1.0  0.91671  0.67550  0.54356  1.0000
  H   H95       1.0  0.50788  0.70051  0.56199  1.0000
  H   H96       1.0  0.98975  0.63006  0.56149  1.0000
