data_image0
_chemical_formula_structural       CNC5H2NCH2NCH2CHCNHC4H2CHNCNC5H5C3NC3H5C3NC3H6CNH2CNH2CNH2CNH2C6H3C6H3C6H3C6H3C6H3CHCNHCNHC4H3C3NC3H4C4NC3H4C3NC3H4C3NC3H4
_chemical_formula_sum              "C99 N18 H72"
_cell_length_a       30.2589
_cell_length_b       30.2588
_cell_length_c       14.7103
_cell_angle_alpha    90
_cell_angle_beta     90
_cell_angle_gamma    120

_space_group_name_H-M_alt    "P 1"
_space_group_IT_number       1

loop_
  _space_group_symop_operation_xyz
  'x, y, z'

loop_
  _atom_site_type_symbol
  _atom_site_label
  _atom_site_symmetry_multiplicity
  _atom_site_fract_x
  _atom_site_fract_y
  _atom_site_fract_z
  _atom_site_occupancy
  C   C1        1.0  0.06919  0.53212  0.31687  1.0000
  N   N1        1.0  0.04266  0.54773  0.26424  1.0000
  C   C2        1.0  0.20405  0.56015  0.35228  1.0000
  C   C3        1.0  0.20277  0.64155  0.35194  1.0000
  C   C4        1.0  0.15052  0.61417  0.32761  1.0000
  C   C5        1.0  0.12357  0.55992  0.32233  1.0000
  C   C6        1.0  0.15144  0.53372  0.33128  1.0000
  H   H1        1.0  0.13094  0.63359  0.32312  1.0000
  H   H2        1.0  0.13281  0.49472  0.32733  1.0000
  N   N2        1.0  0.04154  0.49003  0.36907  1.0000
  C   C7        1.0  0.20291  0.66278  0.57914  1.0000
  H   H3        1.0  0.19195  0.62781  0.61703  1.0000
  H   H4        1.0  0.17333  0.66819  0.54728  1.0000
  N   N3        1.0  0.25171  0.52351  0.29103  1.0000
  C   C8        1.0  0.24572  0.72837  0.29054  1.0000
  H   H5        1.0  0.22758  0.71549  0.22950  1.0000
  H   H6        1.0  0.26480  0.70562  0.01273  1.0000
  C   C9        1.0  0.22828  0.61357  0.36342  1.0000
  H   H7        1.0  0.26687  0.63333  0.37547  1.0000
  C   C10       1.0  0.23411  0.53698  0.36517  1.0000
  N   N4        1.0  0.26470  0.55195  0.43961  1.0000
  H   H8        1.0  0.27871  0.50430  0.60991  1.0000
  C   C11       1.0  0.26278  0.71514  0.44484  1.0000
  C   C12       1.0  0.23140  0.69512  0.36646  1.0000
  C   C13       1.0  0.25478  0.68634  0.53043  1.0000
  C   C14       1.0  0.24859  0.71121  0.61717  1.0000
  H   H9        1.0  0.27722  0.66761  0.54176  1.0000
  H   H10       1.0  0.24598  0.74577  0.60956  1.0000
  C   C15       1.0  0.29618  0.52220  0.29112  1.0000
  H   H11       1.0  0.30905  0.51706  0.22997  1.0000
  N   N5        1.0  0.29152  0.77283  0.29023  1.0000
  C   C16       1.0  0.30941  0.55221  0.44558  1.0000
  N   N6        1.0  0.30727  0.75982  0.43860  1.0000
  C   C17       1.0  0.99066  0.52297  0.26010  1.0000
  C   C18       1.0  0.96097  0.47929  0.31568  1.0000
  C   C19       1.0  0.96887  0.54413  0.19484  1.0000
  C   C20       1.0  0.98637  0.54862  0.09519  1.0000
  C   C21       1.0  0.93141  0.50959  0.12102  1.0000
  H   H12       1.0  0.96502  0.57656  0.21662  1.0000
  H   H13       1.0  0.90256  0.51908  0.10009  1.0000
  H   H14       1.0  0.92227  0.46979  0.11939  1.0000
  H   H15       1.0  0.00992  0.53194  0.07676  1.0000
  H   H16       1.0  0.99064  0.58149  0.05725  1.0000
  C   C22       1.0  0.50158  0.47256  0.26012  1.0000
  C   C23       1.0  0.54525  0.48657  0.31572  1.0000
  C   C24       1.0  0.49246  0.54200  0.31666  1.0000
  N   N7        1.0  0.47682  0.49981  0.26417  1.0000
  C   C25       1.0  0.48038  0.42953  0.19504  1.0000
  C   C26       1.0  0.47589  0.44244  0.09532  1.0000
  C   C27       1.0  0.51487  0.42646  0.12130  1.0000
  H   H17       1.0  0.44791  0.39330  0.21692  1.0000
  H   H18       1.0  0.50532  0.38809  0.10053  1.0000
  H   H19       1.0  0.55468  0.45708  0.11961  1.0000
  H   H20       1.0  0.49262  0.48265  0.07674  1.0000
  H   H21       1.0  0.44299  0.41381  0.05746  1.0000
  C   C28       1.0  0.55213  0.03408  0.26016  1.0000
  C   C29       1.0  0.53805  0.06366  0.31581  1.0000
  C   C30       1.0  0.48280  0.95544  0.31670  1.0000
  N   N8        1.0  0.52496  0.98206  0.26415  1.0000
  C   C31       1.0  0.59512  0.05599  0.19500  1.0000
  C   C32       1.0  0.58218  0.03859  0.09529  1.0000
  C   C33       1.0  0.59805  0.09351  0.12131  1.0000
  H   H22       1.0  0.63140  0.05983  0.21679  1.0000
  H   H23       1.0  0.63638  0.12240  0.10048  1.0000
  H   H24       1.0  0.56737  0.10261  0.11972  1.0000
  H   H25       1.0  0.54196  0.01503  0.07678  1.0000
  H   H26       1.0  0.61082  0.03439  0.05734  1.0000
  H   H27       1.0  0.31894  0.56305  0.01355  1.0000
  C   C34       1.0  0.50241  0.77863  0.29078  1.0000
  N   N9        1.0  0.50104  0.73282  0.29105  1.0000
  H   H28       1.0  0.50760  0.79655  0.22953  1.0000
  H   H29       1.0  0.46124  0.76128  0.01319  1.0000
  C   C35       1.0  0.73845  0.49859  0.29626  1.0000
  N   N10       1.0  0.78217  0.49585  0.29573  1.0000
  H   H30       1.0  0.72624  0.50510  0.23555  1.0000
  H   H31       1.0  0.71466  0.45567  0.01804  1.0000
  C   C36       1.0  0.52573  0.24480  0.29706  1.0000
  N   N11       1.0  0.52856  0.29129  0.29661  1.0000
  H   H32       1.0  0.51926  0.22616  0.23627  1.0000
  H   H33       1.0  0.56822  0.26344  0.01883  1.0000
  C   C37       1.0  0.77948  0.28562  0.29658  1.0000
  N   N12       1.0  0.73296  0.24197  0.29666  1.0000
  H   H34       1.0  0.79809  0.29750  0.23571  1.0000
  H   H35       1.0  0.76139  0.31132  0.01797  1.0000
  C   C38       1.0  0.46433  0.64871  0.35260  1.0000
  C   C39       1.0  0.41095  0.61946  0.36417  1.0000
  C   C40       1.0  0.38300  0.56597  0.35245  1.0000
  C   C41       1.0  0.41037  0.54118  0.32747  1.0000
  C   C42       1.0  0.46462  0.56854  0.32220  1.0000
  C   C43       1.0  0.49077  0.62261  0.33117  1.0000
  H   H36       1.0  0.39100  0.50218  0.32324  1.0000
  H   H37       1.0  0.52977  0.64301  0.32705  1.0000
  H   H38       1.0  0.39117  0.63823  0.37656  1.0000
  C   C44       1.0  0.37602  0.82050  0.35156  1.0000
  C   C45       1.0  0.40524  0.79632  0.36287  1.0000
  C   C46       1.0  0.45875  0.82190  0.35158  1.0000
  C   C47       1.0  0.48363  0.87416  0.32723  1.0000
  C   C48       1.0  0.45626  0.90105  0.32200  1.0000
  C   C49       1.0  0.40218  0.87312  0.33065  1.0000
  H   H39       1.0  0.52263  0.89382  0.32335  1.0000
  H   H40       1.0  0.38179  0.89173  0.32661  1.0000
  H   H41       1.0  0.38644  0.75772  0.37485  1.0000
  C   C50       1.0  0.82713  0.45595  0.35645  1.0000
  C   C51       1.0  0.80132  0.40255  0.36833  1.0000
  C   C52       1.0  0.82508  0.37294  0.35699  1.0000
  C   C53       1.0  0.87707  0.39869  0.33100  1.0000
  C   C54       1.0  0.90598  0.45297  0.32385  1.0000
  C   C55       1.0  0.87951  0.48059  0.33396  1.0000
  H   H42       1.0  0.89489  0.37771  0.32380  1.0000
  H   H43       1.0  0.89922  0.51959  0.33289  1.0000
  H   H44       1.0  0.76276  0.38400  0.38062  1.0000
  C   C56       1.0  0.56846  0.37609  0.35754  1.0000
  C   C57       1.0  0.62185  0.40368  0.36970  1.0000
  C   C58       1.0  0.65152  0.45700  0.35769  1.0000
  C   C59       1.0  0.62581  0.48321  0.33118  1.0000
  C   C60       1.0  0.57154  0.45789  0.32413  1.0000
  C   C61       1.0  0.54388  0.40381  0.33449  1.0000
  H   H45       1.0  0.64683  0.52199  0.32359  1.0000
  H   H46       1.0  0.50488  0.38453  0.33326  1.0000
  H   H47       1.0  0.64036  0.38367  0.38227  1.0000
  C   C62       1.0  0.64831  0.19747  0.35786  1.0000
  C   C63       1.0  0.62056  0.22310  0.37028  1.0000
  C   C64       1.0  0.56724  0.19933  0.35829  1.0000
  C   C65       1.0  0.54116  0.14743  0.33170  1.0000
  C   C66       1.0  0.56662  0.11864  0.32430  1.0000
  C   C67       1.0  0.62072  0.14520  0.33449  1.0000
  H   H48       1.0  0.50238  0.12958  0.32402  1.0000
  H   H49       1.0  0.64011  0.12560  0.33304  1.0000
  H   H50       1.0  0.64047  0.26160  0.38304  1.0000
  C   C68       1.0  0.98972  0.46396  0.36994  1.0000
  H   H51       1.0  0.97214  0.43387  0.41380  1.0000
  C   C69       1.0  0.56065  0.53075  0.36975  1.0000
  N   N13       1.0  0.53458  0.55649  0.36880  1.0000
  H   H52       1.0  0.59076  0.54329  0.41361  1.0000
  C   C70       1.0  0.49395  0.03479  0.37001  1.0000
  N   N14       1.0  0.46828  0.98298  0.36899  1.0000
  H   H53       1.0  0.48139  0.05229  0.41396  1.0000
  C   C71       1.0  0.32944  0.54098  0.36706  1.0000
  C   C72       1.0  0.33823  0.57272  0.53125  1.0000
  C   C73       1.0  0.31332  0.54143  0.61776  1.0000
  C   C74       1.0  0.36169  0.54417  0.57948  1.0000
  H   H54       1.0  0.35702  0.61385  0.54297  1.0000
  H   H55       1.0  0.39668  0.56803  0.61746  1.0000
  H   H56       1.0  0.35622  0.50925  0.54724  1.0000
  C   C75       1.0  0.47239  0.76223  0.44529  1.0000
  C   C76       1.0  0.48373  0.79336  0.36657  1.0000
  C   C77       1.0  0.48746  0.70196  0.36548  1.0000
  N   N15       1.0  0.47250  0.71768  0.43975  1.0000
  C   C78       1.0  0.45184  0.77075  0.53072  1.0000
  C   C79       1.0  0.48298  0.77713  0.61746  1.0000
  C   C80       1.0  0.48049  0.82281  0.57874  1.0000
  H   H57       1.0  0.41069  0.74857  0.54226  1.0000
  H   H58       1.0  0.45668  0.83413  0.61640  1.0000
  H   H59       1.0  0.51550  0.85213  0.54653  1.0000
  H   H60       1.0  0.52004  0.77947  0.60991  1.0000
  C   C81       1.0  0.32276  0.79042  0.36413  1.0000
  C   C82       1.0  0.72419  0.46768  0.45025  1.0000
  C   C83       1.0  0.70501  0.48013  0.37196  1.0000
  C   C84       1.0  0.79868  0.48088  0.36939  1.0000
  N   N16       1.0  0.76808  0.46635  0.44386  1.0000
  C   C85       1.0  0.69522  0.44736  0.53585  1.0000
  C   C86       1.0  0.72087  0.47782  0.62275  1.0000
  C   C87       1.0  0.67322  0.47693  0.58520  1.0000
  H   H61       1.0  0.67538  0.40613  0.54688  1.0000
  H   H62       1.0  0.63806  0.45368  0.62315  1.0000
  H   H63       1.0  0.67977  0.51242  0.55373  1.0000
  H   H64       1.0  0.75615  0.51441  0.61526  1.0000
  C   C88       1.0  0.55638  0.26118  0.45102  1.0000
  C   C89       1.0  0.54395  0.22951  0.37275  1.0000
  C   C90       1.0  0.54351  0.32269  0.37035  1.0000
  N   N17       1.0  0.55791  0.30650  0.44480  1.0000
  C   C91       1.0  0.57661  0.25240  0.53662  1.0000
  C   C92       1.0  0.54610  0.24757  0.62347  1.0000
  C   C93       1.0  0.54693  0.20080  0.58583  1.0000
  H   H65       1.0  0.61783  0.27373  0.54776  1.0000
  H   H66       1.0  0.57011  0.18881  0.62380  1.0000
  H   H67       1.0  0.51145  0.17193  0.55425  1.0000
  H   H68       1.0  0.50956  0.24635  0.61594  1.0000
  C   C94       1.0  0.76333  0.30072  0.45030  1.0000
  C   C95       1.0  0.79481  0.31948  0.37170  1.0000
  C   C96       1.0  0.70172  0.22607  0.37062  1.0000
  N   N18       1.0  0.71797  0.25694  0.44467  1.0000
  C   C97       1.0  0.77228  0.33010  0.53550  1.0000
  C   C98       1.0  0.77714  0.30474  0.62277  1.0000
  C   C99       1.0  0.82393  0.35210  0.58457  1.0000
  H   H69       1.0  0.75107  0.35015  0.54626  1.0000
  H   H70       1.0  0.83607  0.38745  0.62204  1.0000
  H   H71       1.0  0.85270  0.34525  0.55320  1.0000
  H   H72       1.0  0.77823  0.26933  0.61578  1.0000
