data_image0
_chemical_formula_structural       C3NC3NC5NC5NC20H18N4C3NC3NC5NC5NC20H18N4C3NC3NC5NC5NC20H18N5C2HCHNC2HCHNC2HCHNC2HCHNC2HCHNC2HCHC8H8C8H8C8H8CNCNH2CHCNCNH2CHCNCNH2CHCNCNH2CHCNCNH2CHCNCNH2CH
_chemical_formula_sum              "C168 N42 H108"
_cell_length_a       50.3833
_cell_length_b       50.3833
_cell_length_c       14.8083
_cell_angle_alpha    90.0974
_cell_angle_beta     89.9026
_cell_angle_gamma    120

_space_group_name_H-M_alt    "P 1"
_space_group_IT_number       1

loop_
  _space_group_symop_operation_xyz
  'x, y, z'

loop_
  _atom_site_type_symbol
  _atom_site_label
  _atom_site_symmetry_multiplicity
  _atom_site_fract_x
  _atom_site_fract_y
  _atom_site_fract_z
  _atom_site_occupancy
  C   C1        1.0  0.05380  0.65500  0.32647  1.0000
  C   C2        1.0  0.02210  0.63921  0.32678  1.0000
  C   C3        1.0  0.01197  0.60784  0.32628  1.0000
  N   N1        1.0  0.03785  0.60584  0.32588  1.0000
  C   C4        1.0  0.06381  0.63366  0.32610  1.0000
  C   C5        1.0  0.09503  0.64101  0.32580  1.0000
  C   C6        1.0  0.10487  0.61901  0.32580  1.0000
  N   N2        1.0  0.08749  0.58808  0.32595  1.0000
  C   C7        1.0  0.10475  0.57438  0.32618  1.0000
  C   C8        1.0  0.13521  0.59815  0.32597  1.0000
  C   C9        1.0  0.13529  0.62556  0.32606  1.0000
  C   C10       1.0  0.09476  0.54251  0.32658  1.0000
  C   C11       1.0  0.06350  0.51874  0.32638  1.0000
  N   N3        1.0  0.03762  0.52074  0.32586  1.0000
  C   C12       1.0  0.01166  0.49292  0.32615  1.0000
  C   C13       1.0  0.02167  0.47158  0.32664  1.0000
  C   C14       1.0  0.05336  0.48737  0.32700  1.0000
  C   C15       1.0  0.98045  0.48557  0.32580  1.0000
  C   C16       1.0  0.97060  0.50757  0.32576  1.0000
  N   N4        1.0  0.98798  0.53850  0.32586  1.0000
  C   C17       1.0  0.97072  0.55219  0.32612  1.0000
  C   C18       1.0  0.94026  0.52842  0.32599  1.0000
  C   C19       1.0  0.94018  0.50102  0.32609  1.0000
  C   C20       1.0  0.98071  0.58407  0.32650  1.0000
  C   C21       1.0  0.95739  0.59235  0.32811  1.0000
  C   C22       1.0  0.90480  0.59989  0.32963  1.0000
  C   C23       1.0  0.91971  0.60077  0.24787  1.0000
  C   C24       1.0  0.94551  0.59685  0.24684  1.0000
  C   C25       1.0  0.95703  0.45399  0.32551  1.0000
  C   C26       1.0  0.90425  0.39398  0.32709  1.0000
  C   C27       1.0  0.91619  0.40997  0.24492  1.0000
  C   C28       1.0  0.94218  0.43955  0.24414  1.0000
  C   C29       1.0  0.11806  0.53421  0.32826  1.0000
  C   C30       1.0  0.12979  0.52936  0.24702  1.0000
  C   C31       1.0  0.15553  0.52533  0.24802  1.0000
  C   C32       1.0  0.17046  0.52636  0.32971  1.0000
  C   C33       1.0  0.11845  0.67258  0.32545  1.0000
  C   C34       1.0  0.13333  0.68697  0.24405  1.0000
  C   C35       1.0  0.17138  0.73250  0.32701  1.0000
  C   C36       1.0  0.15940  0.71650  0.24482  1.0000
  H   H1        1.0  0.17006  0.72570  0.18485  1.0000
  H   H2        1.0  0.12603  0.67551  0.18392  1.0000
  H   H3        1.0  0.06711  0.67836  0.32665  1.0000
  H   H4        1.0  0.00887  0.64934  0.32724  1.0000
  H   H5        1.0  0.03780  0.58675  0.32547  1.0000
  H   H6        1.0  0.03767  0.53984  0.32531  1.0000
  H   H7        1.0  0.15466  0.64665  0.32632  1.0000
  H   H8        1.0  0.15452  0.59632  0.32594  1.0000
  H   H9        1.0  0.12033  0.52981  0.18631  1.0000
  H   H10       1.0  0.16397  0.52264  0.18785  1.0000
  H   H11       1.0  0.06659  0.47724  0.32757  1.0000
  H   H12       1.0  0.00836  0.44822  0.32693  1.0000
  H   H13       1.0  0.92095  0.53026  0.32608  1.0000
  H   H14       1.0  0.92081  0.47993  0.32647  1.0000
  H   H15       1.0  0.94948  0.45098  0.18402  1.0000
  H   H16       1.0  0.90559  0.40070  0.18494  1.0000
  H   H17       1.0  0.95495  0.59626  0.18610  1.0000
  H   H18       1.0  0.91116  0.60318  0.18767  1.0000
  N   N5        1.0  0.87857  0.36678  0.33423  1.0000
  N   N6        1.0  0.19579  0.52413  0.32427  1.0000
  N   N7        1.0  0.19717  0.75960  0.33417  1.0000
  N   N8        1.0  0.87937  0.60193  0.32425  1.0000
  C   C37       1.0  0.44544  0.48647  0.32578  1.0000
  C   C38       1.0  0.46123  0.47057  0.32604  1.0000
  C   C39       1.0  0.49261  0.49181  0.32547  1.0000
  N   N9        1.0  0.49460  0.51969  0.32505  1.0000
  C   C40       1.0  0.46678  0.51782  0.32536  1.0000
  C   C41       1.0  0.45943  0.54168  0.32506  1.0000
  C   C42       1.0  0.48142  0.57352  0.32501  1.0000
  N   N10       1.0  0.51236  0.58709  0.32514  1.0000
  C   C43       1.0  0.52605  0.61803  0.32534  1.0000
  C   C44       1.0  0.50228  0.62473  0.32511  1.0000
  C   C45       1.0  0.47488  0.59740  0.32524  1.0000
  C   C46       1.0  0.55792  0.63992  0.32574  1.0000
  C   C47       1.0  0.58169  0.63244  0.32554  1.0000
  N   N11       1.0  0.57970  0.60456  0.32502  1.0000
  C   C48       1.0  0.60752  0.60643  0.32535  1.0000
  C   C49       1.0  0.62886  0.63777  0.32586  1.0000
  C   C50       1.0  0.61307  0.65368  0.32620  1.0000
  C   C51       1.0  0.61488  0.58256  0.32499  1.0000
  C   C52       1.0  0.59288  0.55072  0.32489  1.0000
  N   N12       1.0  0.56195  0.53716  0.32500  1.0000
  C   C53       1.0  0.54826  0.50621  0.32522  1.0000
  C   C54       1.0  0.57203  0.49952  0.32508  1.0000
  C   C55       1.0  0.59943  0.52685  0.32518  1.0000
  C   C56       1.0  0.51639  0.48432  0.32560  1.0000
  C   C57       1.0  0.50810  0.45273  0.32722  1.0000
  C   C58       1.0  0.50055  0.39260  0.32872  1.0000
  C   C59       1.0  0.49967  0.40654  0.24696  1.0000
  C   C60       1.0  0.50356  0.43626  0.24594  1.0000
  C   C61       1.0  0.64645  0.59073  0.32478  1.0000
  C   C62       1.0  0.70649  0.59800  0.32667  1.0000
  C   C63       1.0  0.69052  0.59383  0.24444  1.0000
  C   C64       1.0  0.66094  0.59024  0.24350  1.0000
  C   C65       1.0  0.56622  0.67153  0.32739  1.0000
  C   C66       1.0  0.57111  0.68803  0.24616  1.0000
  C   C67       1.0  0.57514  0.71781  0.24713  1.0000
  C   C68       1.0  0.57405  0.73177  0.32880  1.0000
  C   C69       1.0  0.42785  0.53353  0.32483  1.0000
  C   C70       1.0  0.41343  0.53392  0.24349  1.0000
  C   C71       1.0  0.36795  0.52656  0.32667  1.0000
  C   C72       1.0  0.38391  0.53049  0.24442  1.0000
  H   H19       1.0  0.37466  0.53185  0.18448  1.0000
  H   H20       1.0  0.42487  0.53804  0.18333  1.0000
  H   H21       1.0  0.42209  0.47643  0.32601  1.0000
  H   H22       1.0  0.45111  0.44721  0.32651  1.0000
  H   H23       1.0  0.51369  0.53873  0.32455  1.0000
  H   H24       1.0  0.56061  0.58551  0.32445  1.0000
  H   H25       1.0  0.45379  0.59568  0.32551  1.0000
  H   H26       1.0  0.50412  0.64587  0.32508  1.0000
  H   H27       1.0  0.57067  0.67806  0.18546  1.0000
  H   H28       1.0  0.57783  0.72887  0.18696  1.0000
  H   H29       1.0  0.62320  0.67704  0.32679  1.0000
  H   H30       1.0  0.65222  0.64782  0.32616  1.0000
  H   H31       1.0  0.57020  0.47838  0.32509  1.0000
  H   H32       1.0  0.62052  0.52857  0.32553  1.0000
  H   H33       1.0  0.64953  0.58602  0.18333  1.0000
  H   H34       1.0  0.69982  0.59243  0.18452  1.0000
  H   H35       1.0  0.50414  0.44622  0.18521  1.0000
  H   H36       1.0  0.49720  0.39550  0.18677  1.0000
  N   N13       1.0  0.73367  0.59951  0.33398  1.0000
  N   N14       1.0  0.57628  0.75932  0.32332  1.0000
  N   N15       1.0  0.34084  0.52523  0.33394  1.0000
  N   N16       1.0  0.49852  0.36513  0.32331  1.0000
  C   C73       1.0  0.61395  0.04664  0.32538  1.0000
  C   C74       1.0  0.62986  0.07834  0.32574  1.0000
  C   C75       1.0  0.60863  0.08848  0.32514  1.0000
  N   N17       1.0  0.58074  0.06259  0.32463  1.0000
  C   C76       1.0  0.58261  0.03664  0.32490  1.0000
  C   C77       1.0  0.55874  0.00542  0.32453  1.0000
  C   C78       1.0  0.52690  0.99558  0.32450  1.0000
  N   N18       1.0  0.51334  0.01296  0.32468  1.0000
  C   C79       1.0  0.48239  0.99571  0.32493  1.0000
  C   C80       1.0  0.47569  0.96524  0.32472  1.0000
  C   C81       1.0  0.50302  0.96516  0.32476  1.0000
  C   C82       1.0  0.46051  0.00569  0.32539  1.0000
  C   C83       1.0  0.46800  0.03695  0.32515  1.0000
  N   N19       1.0  0.49588  0.06283  0.32460  1.0000
  C   C84       1.0  0.49402  0.08879  0.32487  1.0000
  C   C85       1.0  0.46267  0.07879  0.32538  1.0000
  C   C86       1.0  0.44676  0.04709  0.32578  1.0000
  C   C87       1.0  0.51788  0.12001  0.32449  1.0000
  C   C88       1.0  0.54972  0.12985  0.32447  1.0000
  N   N20       1.0  0.56328  0.11247  0.32462  1.0000
  C   C89       1.0  0.59423  0.12972  0.32489  1.0000
  C   C90       1.0  0.60093  0.16019  0.32470  1.0000
  C   C91       1.0  0.57360  0.16027  0.32475  1.0000
  C   C92       1.0  0.61611  0.11974  0.32534  1.0000
  C   C93       1.0  0.64771  0.14305  0.32705  1.0000
  C   C94       1.0  0.70783  0.19565  0.32886  1.0000
  C   C95       1.0  0.69394  0.18074  0.24703  1.0000
  C   C96       1.0  0.66423  0.15491  0.24588  1.0000
  C   C97       1.0  0.50973  0.14343  0.32422  1.0000
  C   C98       1.0  0.50244  0.19617  0.32597  1.0000
  C   C99       1.0  0.50661  0.18428  0.24376  1.0000
  C   C100      1.0  0.51020  0.15829  0.24289  1.0000
  C   C101      1.0  0.42890  0.98240  0.32716  1.0000
  C   C102      1.0  0.41237  0.97061  0.24602  1.0000
  C   C103      1.0  0.38258  0.94489  0.24718  1.0000
  C   C104      1.0  0.36865  0.92998  0.32896  1.0000
  C   C105      1.0  0.56688  0.98199  0.32424  1.0000
  C   C106      1.0  0.56646  0.96709  0.24288  1.0000
  C   C107      1.0  0.57383  0.92905  0.32595  1.0000
  C   C108      1.0  0.56990  0.94101  0.24374  1.0000
  H   H37       1.0  0.56855  0.93036  0.18377  1.0000
  H   H38       1.0  0.56238  0.97439  0.18273  1.0000
  H   H39       1.0  0.62399  0.03333  0.32561  1.0000
  H   H40       1.0  0.65322  0.09157  0.32626  1.0000
  H   H41       1.0  0.56170  0.06265  0.32410  1.0000
  H   H42       1.0  0.51492  0.06278  0.32404  1.0000
  H   H43       1.0  0.50474  0.94579  0.32504  1.0000
  H   H44       1.0  0.45455  0.94594  0.32471  1.0000
  H   H45       1.0  0.42229  0.98007  0.18526  1.0000
  H   H46       1.0  0.37149  0.93642  0.18707  1.0000
  H   H47       1.0  0.42340  0.03387  0.32637  1.0000
  H   H48       1.0  0.45263  0.09210  0.32565  1.0000
  H   H49       1.0  0.62207  0.17949  0.32472  1.0000
  H   H50       1.0  0.57188  0.17964  0.32504  1.0000
  H   H51       1.0  0.51445  0.15104  0.18275  1.0000
  H   H52       1.0  0.50803  0.19492  0.18384  1.0000
  H   H53       1.0  0.65431  0.14547  0.18510  1.0000
  H   H54       1.0  0.70502  0.18927  0.18691  1.0000
  N   N21       1.0  0.50090  0.22184  0.33320  1.0000
  N   N22       1.0  0.34109  0.90466  0.32368  1.0000
  N   N23       1.0  0.57514  0.90326  0.33317  1.0000
  N   N24       1.0  0.73530  0.22109  0.32358  1.0000
  N   N25       1.0  0.25150  0.53032  0.27071  1.0000
  C   C109      1.0  0.27684  0.53012  0.24047  1.0000
  C   C110      1.0  0.29540  0.52554  0.30257  1.0000
  H   H55       1.0  0.28240  0.53402  0.17351  1.0000
  C   C111      1.0  0.32226  0.52632  0.27639  1.0000
  H   H56       1.0  0.32764  0.52874  0.21121  1.0000
  N   N26       1.0  0.57005  0.80878  0.26976  1.0000
  C   C112      1.0  0.57023  0.83429  0.23958  1.0000
  C   C113      1.0  0.57484  0.85749  0.30171  1.0000
  H   H57       1.0  0.56637  0.83591  0.17261  1.0000
  C   C114      1.0  0.57406  0.88355  0.27558  1.0000
  H   H58       1.0  0.57171  0.88650  0.21040  1.0000
  N   N27       1.0  0.29159  0.84894  0.27039  1.0000
  C   C115      1.0  0.26607  0.82359  0.24031  1.0000
  C   C116      1.0  0.24292  0.80504  0.30255  1.0000
  H   H59       1.0  0.26439  0.81804  0.17333  1.0000
  C   C117      1.0  0.21684  0.77818  0.27651  1.0000
  H   H60       1.0  0.21385  0.77282  0.21132  1.0000
  N   N28       1.0  0.82358  0.59537  0.27074  1.0000
  C   C118      1.0  0.79814  0.59530  0.24051  1.0000
  C   C119      1.0  0.77936  0.59963  0.30264  1.0000
  H   H61       1.0  0.79270  0.59143  0.17348  1.0000
  C   C120      1.0  0.75241  0.59860  0.27644  1.0000
  H   H62       1.0  0.74714  0.59626  0.21121  1.0000
  N   N29       1.0  0.50509  0.31584  0.26984  1.0000
  C   C121      1.0  0.50513  0.29042  0.23962  1.0000
  C   C122      1.0  0.50079  0.26737  0.30178  1.0000
  H   H63       1.0  0.50904  0.28878  0.17263  1.0000
  C   C123      1.0  0.50181  0.24142  0.27562  1.0000
  H   H64       1.0  0.50423  0.23846  0.21042  1.0000
  N   N30       1.0  0.78462  0.27692  0.27035  1.0000
  C   C124      1.0  0.81004  0.30237  0.24029  1.0000
  C   C125      1.0  0.83306  0.32111  0.30257  1.0000
  H   H65       1.0  0.81174  0.30785  0.17329  1.0000
  C   C126      1.0  0.85903  0.34807  0.27655  1.0000
  H   H66       1.0  0.86204  0.35339  0.21136  1.0000
  C   C127      1.0  0.94308  0.59227  0.41034  1.0000
  C   C128      1.0  0.91721  0.59607  0.41110  1.0000
  C   C129      1.0  0.94554  0.43793  0.40750  1.0000
  C   C130      1.0  0.91958  0.40830  0.40802  1.0000
  C   C131      1.0  0.15820  0.53055  0.41114  1.0000
  C   C132      1.0  0.13243  0.53450  0.41041  1.0000
  C   C133      1.0  0.12997  0.68867  0.40744  1.0000
  C   C134      1.0  0.15600  0.71825  0.40796  1.0000
  H   H67       1.0  0.16433  0.72894  0.46869  1.0000
  H   H68       1.0  0.12019  0.67847  0.46766  1.0000
  H   H69       1.0  0.12484  0.53864  0.47009  1.0000
  H   H70       1.0  0.16827  0.53146  0.47176  1.0000
  H   H71       1.0  0.95531  0.44815  0.46768  1.0000
  H   H72       1.0  0.91131  0.39758  0.46872  1.0000
  H   H73       1.0  0.90716  0.59527  0.47176  1.0000
  H   H74       1.0  0.95074  0.58833  0.47006  1.0000
  C   C135      1.0  0.50819  0.43858  0.40945  1.0000
  C   C136      1.0  0.50441  0.40893  0.41018  1.0000
  C   C137      1.0  0.66249  0.59541  0.40683  1.0000
  C   C138      1.0  0.69212  0.59908  0.40751  1.0000
  C   C139      1.0  0.56984  0.71540  0.41024  1.0000
  C   C140      1.0  0.56591  0.68568  0.40954  1.0000
  C   C141      1.0  0.41181  0.52906  0.40690  1.0000
  C   C142      1.0  0.38222  0.52550  0.40754  1.0000
  H   H75       1.0  0.37155  0.52319  0.46832  1.0000
  H   H76       1.0  0.42202  0.52954  0.46707  1.0000
  H   H77       1.0  0.56173  0.67400  0.46921  1.0000
  H   H78       1.0  0.56890  0.72460  0.47083  1.0000
  H   H79       1.0  0.65223  0.59498  0.46698  1.0000
  H   H80       1.0  0.70280  0.60156  0.46829  1.0000
  H   H81       1.0  0.50521  0.39973  0.47084  1.0000
  H   H82       1.0  0.51217  0.45026  0.46914  1.0000
  C   C143      1.0  0.66180  0.15737  0.40935  1.0000
  C   C144      1.0  0.69145  0.18324  0.41024  1.0000
  C   C145      1.0  0.50504  0.15488  0.40623  1.0000
  C   C146      1.0  0.50132  0.18080  0.40683  1.0000
  C   C147      1.0  0.38506  0.94230  0.41030  1.0000
  C   C148      1.0  0.41479  0.96806  0.40940  1.0000
  C   C149      1.0  0.57137  0.97050  0.40627  1.0000
  C   C150      1.0  0.57488  0.94444  0.40687  1.0000
  H   H83       1.0  0.57723  0.93615  0.46761  1.0000
  H   H84       1.0  0.57089  0.98029  0.46646  1.0000
  H   H85       1.0  0.42649  0.97568  0.46902  1.0000
  H   H86       1.0  0.37589  0.93224  0.47097  1.0000
  H   H87       1.0  0.50541  0.14508  0.46640  1.0000
  H   H88       1.0  0.49882  0.18906  0.46758  1.0000
  H   H89       1.0  0.70060  0.19329  0.47093  1.0000
  H   H90       1.0  0.65009  0.14971  0.46899  1.0000
  C   C151      1.0  0.24207  0.52574  0.35842  1.0000
  N   N31       1.0  0.28595  0.52094  0.39014  1.0000
  C   C152      1.0  0.26033  0.52061  0.42159  1.0000
  N   N32       1.0  0.25420  0.51521  0.51099  1.0000
  H   H91       1.0  0.23582  0.51344  0.53802  1.0000
  H   H92       1.0  0.26759  0.51155  0.54986  1.0000
  C   C153      1.0  0.21677  0.52843  0.38167  1.0000
  H   H93       1.0  0.21565  0.53528  0.44365  1.0000
  C   C154      1.0  0.57464  0.80401  0.35746  1.0000
  N   N33       1.0  0.57946  0.85273  0.38926  1.0000
  C   C155      1.0  0.57979  0.82746  0.42066  1.0000
  N   N34       1.0  0.58519  0.82680  0.51005  1.0000
  H   H94       1.0  0.58719  0.81031  0.53684  1.0000
  H   H95       1.0  0.58907  0.84398  0.54879  1.0000
  C   C156      1.0  0.57195  0.77605  0.38070  1.0000
  H   H96       1.0  0.56506  0.76812  0.44265  1.0000
  C   C157      1.0  0.29643  0.85838  0.35809  1.0000
  N   N35       1.0  0.24774  0.81450  0.39011  1.0000
  C   C158      1.0  0.27303  0.84013  0.42141  1.0000
  N   N36       1.0  0.27375  0.84626  0.51084  1.0000
  H   H97       1.0  0.29033  0.86469  0.53771  1.0000
  H   H98       1.0  0.25667  0.83291  0.54978  1.0000
  C   C159      1.0  0.32439  0.88370  0.38119  1.0000
  H   H99       1.0  0.33238  0.88481  0.44307  1.0000
  C   C160      1.0  0.83289  0.59996  0.35851  1.0000
  N   N37       1.0  0.78869  0.60426  0.39026  1.0000
  C   C161      1.0  0.81440  0.60483  0.42173  1.0000
  N   N38       1.0  0.82037  0.61020  0.51120  1.0000
  H   H100      1.0  0.83880  0.61214  0.53827  1.0000
  H   H101      1.0  0.80682  0.61368  0.55009  1.0000
  C   C162      1.0  0.85834  0.59757  0.38175  1.0000
  H   H102      1.0  0.85948  0.59076  0.44368  1.0000
  C   C163      1.0  0.50047  0.32064  0.35758  1.0000
  N   N39       1.0  0.49613  0.27216  0.38938  1.0000
  C   C164      1.0  0.49557  0.29733  0.42081  1.0000
  N   N40       1.0  0.49017  0.29802  0.51026  1.0000
  H   H103      1.0  0.48823  0.31454  0.53730  1.0000
  H   H104      1.0  0.48667  0.28103  0.54917  1.0000
  C   C165      1.0  0.50290  0.34852  0.38078  1.0000
  H   H105      1.0  0.50967  0.35651  0.44275  1.0000
  C   C166      1.0  0.77976  0.26756  0.35806  1.0000
  N   N41       1.0  0.82822  0.31172  0.39014  1.0000
  C   C167      1.0  0.80303  0.28600  0.42143  1.0000
  N   N42       1.0  0.80228  0.27996  0.51087  1.0000
  H   H106      1.0  0.78585  0.26140  0.53762  1.0000
  H   H107      1.0  0.81934  0.29337  0.54973  1.0000
  C   C168      1.0  0.75187  0.24212  0.38113  1.0000
  H   H108      1.0  0.74384  0.24095  0.44306  1.0000
