data_image0
_chemical_formula_structural       C3NC3NC5NC5NC36H26C4H4C3NC3NC5NC5NC36H26C4H4C3NC3NC5NC5NC36H26C4H4C3HCH3NC3HCH3NC3HCH3NC3HCH3NC3HCH3NC3HCH3NC16H16C16H16C16H16C3HCH3NC3HCH3NC3HCH3NC3HCH3NC3HCH3NC3HCH3N
_chemical_formula_sum              "C264 N24 H186"
_cell_length_a       67.6031
_cell_length_b       67.6032
_cell_length_c       14.8235
_cell_angle_alpha    89.717
_cell_angle_beta     90.283
_cell_angle_gamma    120

_space_group_name_H-M_alt    "P 1"
_space_group_IT_number       1

loop_
  _space_group_symop_operation_xyz
  'x, y, z'

loop_
  _atom_site_type_symbol
  _atom_site_label
  _atom_site_symmetry_multiplicity
  _atom_site_fract_x
  _atom_site_fract_y
  _atom_site_fract_z
  _atom_site_occupancy
  C   C1        1.0  0.05193  0.63538  0.33597  1.0000
  C   C2        1.0  0.02832  0.62340  0.33502  1.0000
  C   C3        1.0  0.02102  0.60010  0.33195  1.0000
  N   N1        1.0  0.04044  0.59885  0.33095  1.0000
  C   C4        1.0  0.05964  0.61969  0.33283  1.0000
  C   C5        1.0  0.08301  0.62549  0.33161  1.0000
  C   C6        1.0  0.09057  0.60929  0.32963  1.0000
  N   N2        1.0  0.07783  0.58623  0.33199  1.0000
  C   C7        1.0  0.09085  0.57623  0.32860  1.0000
  C   C8        1.0  0.11344  0.59408  0.32374  1.0000
  C   C9        1.0  0.11327  0.61439  0.32432  1.0000
  C   C10       1.0  0.08362  0.55254  0.32968  1.0000
  C   C11       1.0  0.06039  0.53470  0.33180  1.0000
  N   N3        1.0  0.04097  0.53595  0.33044  1.0000
  C   C12       1.0  0.02177  0.51510  0.33265  1.0000
  C   C13       1.0  0.02950  0.49942  0.33625  1.0000
  C   C14       1.0  0.05310  0.51139  0.33543  1.0000
  C   C15       1.0  0.99841  0.50930  0.33149  1.0000
  C   C16       1.0  0.99084  0.52550  0.32970  1.0000
  N   N4        1.0  0.00359  0.54856  0.33185  1.0000
  C   C17       1.0  0.99056  0.55857  0.32879  1.0000
  C   C18       1.0  0.96795  0.54072  0.32455  1.0000
  C   C19       1.0  0.96813  0.52040  0.32494  1.0000
  C   C20       1.0  0.99779  0.58226  0.32972  1.0000
  C   C21       1.0  0.98035  0.58831  0.32564  1.0000
  C   C22       1.0  0.97200  0.59071  0.24126  1.0000
  C   C23       1.0  0.95292  0.59379  0.23613  1.0000
  C   C24       1.0  0.94139  0.59444  0.31479  1.0000
  C   C25       1.0  0.92080  0.59565  0.30841  1.0000
  C   C26       1.0  0.87956  0.59800  0.29109  1.0000
  C   C27       1.0  0.88388  0.58382  0.23433  1.0000
  C   C28       1.0  0.90397  0.58261  0.24303  1.0000
  C   C29       1.0  0.98123  0.48565  0.33197  1.0000
  C   C30       1.0  0.97512  0.47274  0.25167  1.0000
  C   C31       1.0  0.95713  0.44990  0.25099  1.0000
  C   C32       1.0  0.94446  0.43925  0.33006  1.0000
  C   C33       1.0  0.92589  0.41610  0.32890  1.0000
  C   C34       1.0  0.92776  0.39877  0.28312  1.0000
  C   C35       1.0  0.90972  0.37596  0.28290  1.0000
  C   C36       1.0  0.88890  0.36950  0.32775  1.0000
  C   C37       1.0  0.10104  0.54646  0.32588  1.0000
  C   C38       1.0  0.13961  0.53975  0.31429  1.0000
  C   C39       1.0  0.12718  0.53936  0.23628  1.0000
  C   C40       1.0  0.10829  0.54273  0.24174  1.0000
  C   C41       1.0  0.15994  0.53813  0.30715  1.0000
  C   C42       1.0  0.17596  0.54990  0.23777  1.0000
  C   C43       1.0  0.19581  0.54830  0.22856  1.0000
  C   C44       1.0  0.20069  0.53497  0.28871  1.0000
  C   C45       1.0  0.10021  0.64913  0.33212  1.0000
  C   C46       1.0  0.10631  0.66215  0.25176  1.0000
  C   C47       1.0  0.12445  0.68492  0.25101  1.0000
  C   C48       1.0  0.13729  0.69538  0.33004  1.0000
  C   C49       1.0  0.15607  0.71843  0.32874  1.0000
  C   C50       1.0  0.19349  0.76481  0.32731  1.0000
  C   C51       1.0  0.17267  0.75867  0.28246  1.0000
  C   C52       1.0  0.15442  0.73596  0.28277  1.0000
  H   H1        1.0  0.17053  0.77076  0.24903  1.0000
  H   H2        1.0  0.13959  0.73248  0.25075  1.0000
  H   H3        1.0  0.12868  0.69357  0.19098  1.0000
  H   H4        1.0  0.09787  0.65497  0.19279  1.0000
  H   H5        1.0  0.06166  0.65277  0.33809  1.0000
  H   H6        1.0  0.01832  0.63078  0.33656  1.0000
  H   H7        1.0  0.04057  0.58474  0.32696  1.0000
  H   H8        1.0  0.04084  0.55006  0.32594  1.0000
  H   H9        1.0  0.12755  0.63017  0.32047  1.0000
  H   H10       1.0  0.12786  0.59284  0.31975  1.0000
  H   H11       1.0  0.10026  0.54309  0.18355  1.0000
  H   H12       1.0  0.13195  0.53689  0.17388  1.0000
  H   H13       1.0  0.06310  0.50402  0.33755  1.0000
  H   H14       1.0  0.01977  0.48202  0.33891  1.0000
  H   H15       1.0  0.95352  0.54195  0.32111  1.0000
  H   H16       1.0  0.95384  0.50463  0.32148  1.0000
  H   H17       1.0  0.98346  0.48002  0.19272  1.0000
  H   H18       1.0  0.95290  0.44130  0.19103  1.0000
  H   H19       1.0  0.91201  0.36404  0.24952  1.0000
  H   H20       1.0  0.94259  0.40249  0.25103  1.0000
  H   H21       1.0  0.90604  0.57183  0.20103  1.0000
  H   H22       1.0  0.87237  0.57414  0.18544  1.0000
  H   H23       1.0  0.94730  0.59523  0.17358  1.0000
  H   H24       1.0  0.97933  0.58953  0.18280  1.0000
  H   H25       1.0  0.17349  0.56006  0.19316  1.0000
  H   H26       1.0  0.20673  0.55708  0.17681  1.0000
  C   C53       1.0  0.85986  0.59935  0.27672  1.0000
  C   C54       1.0  0.87154  0.34665  0.32789  1.0000
  C   C55       1.0  0.22015  0.53325  0.27424  1.0000
  C   C56       1.0  0.21107  0.78755  0.32739  1.0000
  H   H27       1.0  0.85280  0.59533  0.21564  1.0000
  H   H28       1.0  0.20710  0.79974  0.31717  1.0000
  H   H29       1.0  0.22676  0.53666  0.21250  1.0000
  H   H30       1.0  0.87569  0.33464  0.31717  1.0000
  C   C57       1.0  0.47142  0.50805  0.33941  1.0000
  C   C58       1.0  0.48340  0.49641  0.33855  1.0000
  C   C59       1.0  0.50671  0.51242  0.33551  1.0000
  N   N5        1.0  0.50795  0.53310  0.33447  1.0000
  C   C60       1.0  0.48711  0.53146  0.33627  1.0000
  C   C61       1.0  0.48131  0.54902  0.33496  1.0000
  C   C62       1.0  0.49752  0.57279  0.33309  1.0000
  N   N6        1.0  0.52058  0.58310  0.33554  1.0000
  C   C63       1.0  0.53059  0.60613  0.33220  1.0000
  C   C64       1.0  0.51274  0.61089  0.32735  1.0000
  C   C65       1.0  0.49243  0.59041  0.32772  1.0000
  C   C66       1.0  0.55428  0.62259  0.33328  1.0000
  C   C67       1.0  0.57211  0.61719  0.33529  1.0000
  N   N7        1.0  0.57086  0.59652  0.33390  1.0000
  C   C68       1.0  0.59171  0.59816  0.33600  1.0000
  C   C69       1.0  0.60740  0.62157  0.33950  1.0000
  C   C70       1.0  0.59542  0.63320  0.33878  1.0000
  C   C71       1.0  0.59751  0.58060  0.33483  1.0000
  C   C72       1.0  0.58131  0.55684  0.33312  1.0000
  N   N8        1.0  0.55825  0.54653  0.33535  1.0000
  C   C73       1.0  0.54823  0.52350  0.33234  1.0000
  C   C74       1.0  0.56608  0.51874  0.32807  1.0000
  C   C75       1.0  0.58640  0.53923  0.32836  1.0000
  C   C76       1.0  0.52454  0.50704  0.33333  1.0000
  C   C77       1.0  0.51848  0.48354  0.32932  1.0000
  C   C78       1.0  0.51605  0.47297  0.24494  1.0000
  C   C79       1.0  0.51299  0.45082  0.23983  1.0000
  C   C80       1.0  0.51236  0.43848  0.31850  1.0000
  C   C81       1.0  0.51116  0.41671  0.31213  1.0000
  C   C82       1.0  0.50881  0.37315  0.29480  1.0000
  C   C83       1.0  0.52299  0.39178  0.23803  1.0000
  C   C84       1.0  0.52419  0.41305  0.24674  1.0000
  C   C85       1.0  0.62116  0.58707  0.33505  1.0000
  C   C86       1.0  0.63403  0.59408  0.25465  1.0000
  C   C87       1.0  0.65687  0.59893  0.25370  1.0000
  C   C88       1.0  0.66756  0.59672  0.33259  1.0000
  C   C89       1.0  0.69072  0.60131  0.33114  1.0000
  C   C90       1.0  0.70801  0.62063  0.28538  1.0000
  C   C91       1.0  0.73082  0.62540  0.28489  1.0000
  C   C92       1.0  0.73731  0.61092  0.32936  1.0000
  C   C93       1.0  0.56035  0.64610  0.32950  1.0000
  C   C94       1.0  0.56709  0.69141  0.31804  1.0000
  C   C95       1.0  0.56747  0.67954  0.24000  1.0000
  C   C96       1.0  0.56410  0.65727  0.24540  1.0000
  C   C97       1.0  0.56870  0.71337  0.31095  1.0000
  C   C98       1.0  0.55691  0.71777  0.24160  1.0000
  C   C99       1.0  0.55852  0.73924  0.23239  1.0000
  C   C100      1.0  0.57186  0.75732  0.29255  1.0000
  C   C101      1.0  0.45767  0.54259  0.33522  1.0000
  C   C102      1.0  0.44470  0.53582  0.25476  1.0000
  C   C103      1.0  0.42193  0.53119  0.25372  1.0000
  C   C104      1.0  0.41142  0.53342  0.33257  1.0000
  C   C105      1.0  0.38837  0.52914  0.33098  1.0000
  C   C106      1.0  0.34199  0.52018  0.32886  1.0000
  C   C107      1.0  0.34816  0.50557  0.28441  1.0000
  C   C108      1.0  0.37087  0.51002  0.28509  1.0000
  H   H31       1.0  0.33609  0.49139  0.25101  1.0000
  H   H32       1.0  0.37437  0.49873  0.25329  1.0000
  H   H33       1.0  0.41330  0.52685  0.19364  1.0000
  H   H34       1.0  0.45190  0.53465  0.19592  1.0000
  H   H35       1.0  0.45403  0.50038  0.34147  1.0000
  H   H36       1.0  0.47602  0.47903  0.34010  1.0000
  H   H37       1.0  0.52206  0.54734  0.33048  1.0000
  H   H38       1.0  0.55675  0.58229  0.32969  1.0000
  H   H39       1.0  0.47665  0.58892  0.32379  1.0000
  H   H40       1.0  0.51398  0.62656  0.32321  1.0000
  H   H41       1.0  0.56373  0.64901  0.18718  1.0000
  H   H42       1.0  0.56994  0.68693  0.17762  1.0000
  H   H43       1.0  0.60280  0.65057  0.34089  1.0000
  H   H44       1.0  0.62479  0.62923  0.34210  1.0000
  H   H45       1.0  0.56484  0.50307  0.32466  1.0000
  H   H46       1.0  0.60217  0.54071  0.32488  1.0000
  H   H47       1.0  0.62672  0.59530  0.19583  1.0000
  H   H48       1.0  0.66544  0.60347  0.19368  1.0000
  H   H49       1.0  0.74273  0.63971  0.25158  1.0000
  H   H50       1.0  0.70428  0.63184  0.25362  1.0000
  H   H51       1.0  0.53496  0.42600  0.20471  1.0000
  H   H52       1.0  0.53266  0.39005  0.18912  1.0000
  H   H53       1.0  0.51154  0.44390  0.17729  1.0000
  H   H54       1.0  0.51726  0.48162  0.18647  1.0000
  H   H55       1.0  0.54676  0.70524  0.19700  1.0000
  H   H56       1.0  0.54974  0.74150  0.18064  1.0000
  C   C109      1.0  0.50747  0.35213  0.28044  1.0000
  C   C110      1.0  0.76016  0.61641  0.32919  1.0000
  C   C111      1.0  0.57360  0.77855  0.27804  1.0000
  C   C112      1.0  0.31924  0.51500  0.32857  1.0000
  H   H57       1.0  0.51153  0.34925  0.21941  1.0000
  H   H58       1.0  0.30706  0.49885  0.31876  1.0000
  H   H59       1.0  0.57023  0.78188  0.21625  1.0000
  H   H60       1.0  0.77217  0.63262  0.31900  1.0000
  C   C113      1.0  0.59878  0.05490  0.34166  1.0000
  C   C114      1.0  0.61041  0.07850  0.34058  1.0000
  C   C115      1.0  0.59438  0.08580  0.33771  1.0000
  N   N9        1.0  0.57372  0.06637  0.33693  1.0000
  C   C116      1.0  0.57537  0.04717  0.33880  1.0000
  C   C117      1.0  0.55780  0.02380  0.33773  1.0000
  C   C118      1.0  0.53403  0.01623  0.33579  1.0000
  N   N10       1.0  0.52372  0.02898  0.33809  1.0000
  C   C119      1.0  0.50069  0.01595  0.33452  1.0000
  C   C120      1.0  0.49594  0.99336  0.32965  1.0000
  C   C121      1.0  0.51643  0.99354  0.33040  1.0000
  C   C122      1.0  0.48423  0.02318  0.33539  1.0000
  C   C123      1.0  0.48961  0.04640  0.33763  1.0000
  N   N11       1.0  0.51028  0.06583  0.33647  1.0000
  C   C124      1.0  0.50863  0.08502  0.33865  1.0000
  C   C125      1.0  0.48522  0.07729  0.34210  1.0000
  C   C126      1.0  0.47360  0.05369  0.34113  1.0000
  C   C127      1.0  0.52618  0.10839  0.33756  1.0000
  C   C128      1.0  0.54995  0.11597  0.33574  1.0000
  N   N12       1.0  0.56026  0.10322  0.33782  1.0000
  C   C129      1.0  0.58329  0.11625  0.33469  1.0000
  C   C130      1.0  0.58804  0.13885  0.33047  1.0000
  C   C131      1.0  0.56755  0.13868  0.33098  1.0000
  C   C132      1.0  0.59976  0.10902  0.33547  1.0000
  C   C133      1.0  0.62324  0.12647  0.33096  1.0000
  C   C134      1.0  0.63368  0.13477  0.24633  1.0000
  C   C135      1.0  0.65581  0.15388  0.24073  1.0000
  C   C136      1.0  0.66827  0.16545  0.31914  1.0000
  C   C137      1.0  0.69002  0.18605  0.31227  1.0000
  C   C138      1.0  0.73352  0.22730  0.29390  1.0000
  C   C139      1.0  0.71478  0.22295  0.23780  1.0000
  C   C140      1.0  0.69353  0.20286  0.24701  1.0000
  C   C141      1.0  0.51971  0.12557  0.33794  1.0000
  C   C142      1.0  0.51269  0.13163  0.25762  1.0000
  C   C143      1.0  0.50782  0.14961  0.25684  1.0000
  C   C144      1.0  0.51006  0.16233  0.33581  1.0000
  C   C145      1.0  0.50547  0.18090  0.33450  1.0000
  C   C146      1.0  0.48614  0.17898  0.28885  1.0000
  C   C147      1.0  0.48138  0.19703  0.28843  1.0000
  C   C148      1.0  0.49586  0.21789  0.33294  1.0000
  C   C149      1.0  0.46072  0.00576  0.33110  1.0000
  C   C150      1.0  0.41545  0.96718  0.31852  1.0000
  C   C151      1.0  0.42742  0.97968  0.24078  1.0000
  C   C152      1.0  0.44968  0.99858  0.24674  1.0000
  C   C153      1.0  0.39351  0.94683  0.31087  1.0000
  C   C154      1.0  0.38924  0.93087  0.24141  1.0000
  C   C155      1.0  0.36780  0.91102  0.23169  1.0000
  C   C156      1.0  0.34962  0.90607  0.29141  1.0000
  C   C157      1.0  0.56425  0.00660  0.33813  1.0000
  C   C158      1.0  0.57104  0.00056  0.25777  1.0000
  C   C159      1.0  0.57567  0.98242  0.25688  1.0000
  C   C160      1.0  0.57341  0.96952  0.33579  1.0000
  C   C161      1.0  0.57768  0.95075  0.33433  1.0000
  C   C162      1.0  0.58664  0.91332  0.33247  1.0000
  C   C163      1.0  0.60126  0.93419  0.28800  1.0000
  C   C164      1.0  0.59681  0.95245  0.28856  1.0000
  H   H61       1.0  0.61544  0.93636  0.25466  1.0000
  H   H62       1.0  0.60811  0.96731  0.25673  1.0000
  H   H63       1.0  0.57999  0.97822  0.19683  1.0000
  H   H64       1.0  0.57219  0.00902  0.19886  1.0000
  H   H65       1.0  0.60646  0.04517  0.34373  1.0000
  H   H66       1.0  0.62778  0.08851  0.34196  1.0000
  H   H67       1.0  0.55947  0.06624  0.33337  1.0000
  H   H68       1.0  0.52451  0.06597  0.33207  1.0000
  H   H69       1.0  0.51792  0.97926  0.32628  1.0000
  H   H70       1.0  0.48028  0.97895  0.32530  1.0000
  H   H71       1.0  0.45801  0.00666  0.18873  1.0000
  H   H72       1.0  0.42013  0.97496  0.17823  1.0000
  H   H73       1.0  0.45623  0.04368  0.34306  1.0000
  H   H74       1.0  0.47755  0.08701  0.34464  1.0000
  H   H75       1.0  0.60370  0.15329  0.32704  1.0000
  H   H76       1.0  0.56606  0.15297  0.32758  1.0000
  H   H77       1.0  0.51147  0.12325  0.19874  1.0000
  H   H78       1.0  0.50331  0.15381  0.19686  1.0000
  H   H79       1.0  0.46707  0.19471  0.25516  1.0000
  H   H80       1.0  0.47493  0.16412  0.25700  1.0000
  H   H81       1.0  0.68050  0.20075  0.20544  1.0000
  H   H82       1.0  0.71640  0.23444  0.18900  1.0000
  H   H83       1.0  0.66263  0.15947  0.17803  1.0000
  H   H84       1.0  0.62494  0.12743  0.18805  1.0000
  H   H85       1.0  0.40185  0.93339  0.19712  1.0000
  H   H86       1.0  0.36565  0.90014  0.17991  1.0000
  C   C165      1.0  0.75451  0.24701  0.27898  1.0000
  C   C166      1.0  0.49038  0.23524  0.33284  1.0000
  C   C167      1.0  0.32843  0.88660  0.27642  1.0000
  C   C168      1.0  0.59180  0.89575  0.33228  1.0000
  H   H87       1.0  0.75724  0.25410  0.21801  1.0000
  H   H88       1.0  0.60795  0.89973  0.32252  1.0000
  H   H89       1.0  0.32526  0.87998  0.21471  1.0000
  H   H90       1.0  0.47417  0.23107  0.32268  1.0000
  C   C169      1.0  0.25008  0.52777  0.33395  1.0000
  C   C170      1.0  0.25921  0.52397  0.25462  1.0000
  C   C171      1.0  0.28027  0.52420  0.25462  1.0000
  H   H91       1.0  0.25050  0.52128  0.19525  1.0000
  C   C172      1.0  0.28950  0.52128  0.16779  1.0000
  H   H92       1.0  0.27878  0.51981  0.10997  1.0000
  H   H93       1.0  0.29075  0.50581  0.17035  1.0000
  H   H94       1.0  0.30645  0.53594  0.15588  1.0000
  N   N13       1.0  0.23089  0.52904  0.33670  1.0000
  C   C173      1.0  0.57904  0.81381  0.33773  1.0000
  C   C174      1.0  0.58283  0.82690  0.25838  1.0000
  C   C175      1.0  0.58260  0.84774  0.25835  1.0000
  H   H95       1.0  0.58553  0.82101  0.19902  1.0000
  C   C176      1.0  0.58552  0.86007  0.17152  1.0000
  H   H96       1.0  0.58699  0.85094  0.11371  1.0000
  H   H97       1.0  0.60099  0.87678  0.17406  1.0000
  H   H98       1.0  0.57086  0.86238  0.15958  1.0000
  N   N14       1.0  0.57776  0.79334  0.34051  1.0000
  C   C177      1.0  0.29301  0.85670  0.33510  1.0000
  C   C178      1.0  0.28009  0.84759  0.25536  1.0000
  C   C179      1.0  0.25925  0.82654  0.25481  1.0000
  H   H99       1.0  0.28612  0.85632  0.19609  1.0000
  C   C180      1.0  0.24711  0.81733  0.16761  1.0000
  H   H100      1.0  0.25636  0.82807  0.11001  1.0000
  H   H101      1.0  0.23039  0.81608  0.16946  1.0000
  H   H102      1.0  0.24481  0.80038  0.15590  1.0000
  N   N15       1.0  0.31347  0.87587  0.33840  1.0000
  C   C181      1.0  0.83009  0.60488  0.33577  1.0000
  C   C182      1.0  0.82063  0.60837  0.25613  1.0000
  C   C183      1.0  0.79940  0.60779  0.25589  1.0000
  H   H103      1.0  0.82922  0.61106  0.19671  1.0000
  C   C184      1.0  0.78983  0.61037  0.16880  1.0000
  H   H104      1.0  0.80048  0.61193  0.11103  1.0000
  H   H105      1.0  0.78828  0.62568  0.17054  1.0000
  H   H106      1.0  0.77296  0.59552  0.15746  1.0000
  N   N16       1.0  0.84944  0.60392  0.33871  1.0000
  C   C185      1.0  0.50192  0.31670  0.33948  1.0000
  C   C186      1.0  0.49843  0.30393  0.25983  1.0000
  C   C187      1.0  0.49900  0.28327  0.25957  1.0000
  H   H107      1.0  0.49572  0.30996  0.20044  1.0000
  C   C188      1.0  0.49639  0.27130  0.17248  1.0000
  H   H108      1.0  0.49483  0.28052  0.11473  1.0000
  H   H109      1.0  0.48108  0.25445  0.17424  1.0000
  H   H110      1.0  0.51124  0.26930  0.16110  1.0000
  N   N17       1.0  0.50287  0.33701  0.34243  1.0000
  C   C189      1.0  0.79011  0.27673  0.33695  1.0000
  C   C190      1.0  0.80267  0.28618  0.25687  1.0000
  C   C191      1.0  0.82334  0.30740  0.25608  1.0000
  H   H111      1.0  0.79650  0.27757  0.19758  1.0000
  C   C192      1.0  0.83510  0.31695  0.16862  1.0000
  H   H112      1.0  0.82573  0.30629  0.11107  1.0000
  H   H113      1.0  0.85194  0.31847  0.16957  1.0000
  H   H114      1.0  0.83708  0.33382  0.15755  1.0000
  N   N18       1.0  0.76980  0.25738  0.34045  1.0000
  C   C193      1.0  0.95033  0.59268  0.39925  1.0000
  C   C194      1.0  0.96939  0.58950  0.40468  1.0000
  C   C195      1.0  0.91629  0.60954  0.36635  1.0000
  C   C196      1.0  0.89610  0.61077  0.35777  1.0000
  C   C197      1.0  0.95080  0.45236  0.41031  1.0000
  C   C198      1.0  0.96889  0.47514  0.41142  1.0000
  C   C199      1.0  0.88689  0.38681  0.37302  1.0000
  C   C200      1.0  0.90504  0.40960  0.37378  1.0000
  C   C201      1.0  0.11291  0.54633  0.40441  1.0000
  C   C202      1.0  0.13179  0.54289  0.39865  1.0000
  C   C203      1.0  0.18496  0.52346  0.35926  1.0000
  C   C204      1.0  0.16502  0.52508  0.36836  1.0000
  C   C205      1.0  0.11270  0.65948  0.41154  1.0000
  C   C206      1.0  0.13094  0.68219  0.41036  1.0000
  C   C207      1.0  0.17693  0.72460  0.37356  1.0000
  C   C208      1.0  0.19529  0.74728  0.37266  1.0000
  H   H115      1.0  0.20993  0.75091  0.40656  1.0000
  H   H116      1.0  0.17909  0.71250  0.40663  1.0000
  H   H117      1.0  0.13948  0.68907  0.46939  1.0000
  H   H118      1.0  0.10883  0.65040  0.47057  1.0000
  H   H119      1.0  0.10834  0.54950  0.46605  1.0000
  H   H120      1.0  0.14051  0.54388  0.45659  1.0000
  H   H121      1.0  0.97279  0.48414  0.47042  1.0000
  H   H122      1.0  0.94239  0.44535  0.46937  1.0000
  H   H123      1.0  0.90272  0.42154  0.40673  1.0000
  H   H124      1.0  0.87224  0.38295  0.40688  1.0000
  H   H125      1.0  0.97474  0.58726  0.46661  1.0000
  H   H126      1.0  0.94228  0.59246  0.45778  1.0000
  H   H127      1.0  0.89381  0.62146  0.39958  1.0000
  H   H128      1.0  0.92804  0.61949  0.41397  1.0000
  H   H129      1.0  0.15385  0.51603  0.41896  1.0000
  H   H130      1.0  0.18766  0.51342  0.40373  1.0000
  C   C209      1.0  0.51415  0.44902  0.40294  1.0000
  C   C210      1.0  0.51729  0.47124  0.40837  1.0000
  C   C211      1.0  0.49727  0.39817  0.37010  1.0000
  C   C212      1.0  0.49605  0.37678  0.36153  1.0000
  C   C213      1.0  0.65450  0.58974  0.41293  1.0000
  C   C214      1.0  0.63172  0.58506  0.41433  1.0000
  C   C215      1.0  0.72003  0.59148  0.37456  1.0000
  C   C216      1.0  0.69724  0.58683  0.37561  1.0000
  C   C217      1.0  0.56051  0.65792  0.40809  1.0000
  C   C218      1.0  0.56394  0.68025  0.40237  1.0000
  C   C219      1.0  0.58336  0.75294  0.36311  1.0000
  C   C220      1.0  0.58175  0.73137  0.37215  1.0000
  C   C221      1.0  0.44728  0.54458  0.41447  1.0000
  C   C222      1.0  0.42457  0.54012  0.41299  1.0000
  C   C223      1.0  0.38217  0.54375  0.37543  1.0000
  C   C224      1.0  0.35948  0.53942  0.37419  1.0000
  H   H131      1.0  0.35583  0.55040  0.40779  1.0000
  H   H132      1.0  0.39425  0.55797  0.40843  1.0000
  H   H133      1.0  0.41766  0.54168  0.47189  1.0000
  H   H134      1.0  0.45633  0.54970  0.47353  1.0000
  H   H135      1.0  0.55730  0.65003  0.46968  1.0000
  H   H136      1.0  0.56294  0.68784  0.46033  1.0000
  H   H137      1.0  0.62275  0.57981  0.47340  1.0000
  H   H138      1.0  0.66154  0.58820  0.47188  1.0000
  H   H139      1.0  0.68531  0.57248  0.40857  1.0000
  H   H140      1.0  0.72391  0.58059  0.40816  1.0000
  H   H141      1.0  0.51959  0.47871  0.47028  1.0000
  H   H142      1.0  0.51436  0.44106  0.46147  1.0000
  H   H143      1.0  0.48537  0.36372  0.40336  1.0000
  H   H144      1.0  0.48734  0.39988  0.41776  1.0000
  H   H145      1.0  0.59080  0.72913  0.42274  1.0000
  H   H146      1.0  0.59342  0.76559  0.40752  1.0000
  C   C225      1.0  0.65788  0.15655  0.40381  1.0000
  C   C226      1.0  0.63567  0.13745  0.40974  1.0000
  C   C227      1.0  0.70867  0.19060  0.36963  1.0000
  C   C228      1.0  0.73004  0.21079  0.36049  1.0000
  C   C229      1.0  0.51704  0.15604  0.41606  1.0000
  C   C230      1.0  0.52173  0.13795  0.41730  1.0000
  C   C231      1.0  0.51531  0.21994  0.37807  1.0000
  C   C232      1.0  0.51995  0.20179  0.37906  1.0000
  C   C233      1.0  0.44879  0.99384  0.40939  1.0000
  C   C234      1.0  0.42649  0.97493  0.40311  1.0000
  C   C235      1.0  0.35386  0.92174  0.36203  1.0000
  C   C236      1.0  0.37541  0.94169  0.37163  1.0000
  C   C237      1.0  0.56224  0.99406  0.41744  1.0000
  C   C238      1.0  0.56669  0.97581  0.41612  1.0000
  C   C239      1.0  0.56306  0.92985  0.37882  1.0000
  C   C240      1.0  0.56738  0.91149  0.37771  1.0000
  H   H147      1.0  0.55640  0.89680  0.41129  1.0000
  H   H148      1.0  0.54883  0.92764  0.41174  1.0000
  H   H149      1.0  0.56512  0.96722  0.47506  1.0000
  H   H150      1.0  0.55710  0.99788  0.47646  1.0000
  H   H151      1.0  0.45660  0.99833  0.47116  1.0000
  H   H152      1.0  0.41881  0.96616  0.46089  1.0000
  H   H153      1.0  0.52698  0.13408  0.47632  1.0000
  H   H154      1.0  0.51859  0.16449  0.47506  1.0000
  H   H155      1.0  0.53430  0.20413  0.41192  1.0000
  H   H156      1.0  0.52620  0.23462  0.41171  1.0000
  H   H157      1.0  0.62830  0.13214  0.47183  1.0000
  H   H158      1.0  0.66593  0.16461  0.46219  1.0000
  H   H159      1.0  0.74319  0.21309  0.40182  1.0000
  H   H160      1.0  0.70707  0.17886  0.41710  1.0000
  H   H161      1.0  0.37756  0.95282  0.42229  1.0000
  H   H162      1.0  0.34115  0.91900  0.40619  1.0000
  C   C241      1.0  0.29243  0.52780  0.33732  1.0000
  C   C242      1.0  0.28330  0.53126  0.41827  1.0000
  C   C243      1.0  0.26221  0.53098  0.41517  1.0000
  H   H163      1.0  0.25582  0.53378  0.47320  1.0000
  C   C244      1.0  0.29490  0.53539  0.50753  1.0000
  H   H164      1.0  0.31086  0.53509  0.50513  1.0000
  H   H165      1.0  0.28366  0.52227  0.55539  1.0000
  H   H166      1.0  0.29874  0.55206  0.53310  1.0000
  N   N19       1.0  0.31334  0.53027  0.33819  1.0000
  C   C245      1.0  0.57900  0.85612  0.34104  1.0000
  C   C246      1.0  0.57554  0.84336  0.42199  1.0000
  C   C247      1.0  0.57583  0.82256  0.41893  1.0000
  H   H167      1.0  0.57301  0.81323  0.47697  1.0000
  C   C248      1.0  0.57140  0.85063  0.51123  1.0000
  H   H168      1.0  0.57169  0.86690  0.50880  1.0000
  H   H169      1.0  0.58452  0.85242  0.55912  1.0000
  H   H170      1.0  0.55473  0.83774  0.53679  1.0000
  N   N20       1.0  0.57653  0.87456  0.34186  1.0000
  C   C249      1.0  0.25068  0.81436  0.33736  1.0000
  C   C250      1.0  0.26326  0.82346  0.41870  1.0000
  C   C251      1.0  0.28407  0.84455  0.41615  1.0000
  H   H171      1.0  0.29327  0.85092  0.47447  1.0000
  C   C252      1.0  0.25578  0.81185  0.50783  1.0000
  H   H172      1.0  0.23951  0.79589  0.50499  1.0000
  H   H173      1.0  0.25389  0.82307  0.55540  1.0000
  H   H174      1.0  0.26860  0.80799  0.53405  1.0000
  N   N21       1.0  0.23223  0.79345  0.33778  1.0000
  C   C253      1.0  0.78740  0.60415  0.33865  1.0000
  C   C254      1.0  0.79687  0.60105  0.41991  1.0000
  C   C255      1.0  0.81813  0.60168  0.41705  1.0000
  H   H175      1.0  0.82477  0.59911  0.47532  1.0000
  C   C256      1.0  0.78547  0.59693  0.50926  1.0000
  H   H176      1.0  0.76936  0.59694  0.50662  1.0000
  H   H177      1.0  0.79669  0.61022  0.55648  1.0000
  H   H178      1.0  0.78195  0.58039  0.53578  1.0000
  N   N22       1.0  0.76636  0.60136  0.33934  1.0000
  C   C257      1.0  0.50264  0.27473  0.34231  1.0000
  C   C258      1.0  0.50577  0.28713  0.42357  1.0000
  C   C259      1.0  0.50514  0.30777  0.42073  1.0000
  H   H179      1.0  0.50772  0.31686  0.47900  1.0000
  C   C260      1.0  0.50991  0.27967  0.51290  1.0000
  H   H180      1.0  0.50989  0.26354  0.51025  1.0000
  H   H181      1.0  0.49662  0.27750  0.56017  1.0000
  H   H182      1.0  0.52646  0.29263  0.53936  1.0000
  N   N23       1.0  0.50543  0.25648  0.34299  1.0000
  C   C261      1.0  0.83209  0.31941  0.33868  1.0000
  C   C262      1.0  0.81988  0.30996  0.42034  1.0000
  C   C263      1.0  0.79924  0.28871  0.41803  1.0000
  H   H183      1.0  0.79029  0.28209  0.47660  1.0000
  C   C264      1.0  0.82757  0.32138  0.50957  1.0000
  H   H184      1.0  0.84369  0.33749  0.50650  1.0000
  H   H185      1.0  0.82985  0.31017  0.55646  1.0000
  H   H186      1.0  0.81468  0.32492  0.53677  1.0000
  N   N24       1.0  0.85034  0.34045  0.33896  1.0000
