data_image0
_chemical_formula_structural       C3NC3NC5NC5NC20H18N4C3NC3NC5NC5NC20H18N4C3NC3NC5NC5NC20H18N4C3NC3NC5NC5NC20H18N4C3NC3NC5NC5NC20H18N4C3NC3NC5NC5NC20H18N4C3HCH3CHC3HCH3CHC3HCH3CHC3HCH3CHC3HCH3CHC3HCH3CHC3HCH3CHC3HCH3CHC3HCH3CHC3HCH3CHC3HCH3CHC3HCH3CHC8H8C8H8C8H8C8H8C8H8C8H8C3HCH3CHC3HCH3CHC3HCH3CHC3HCH3CHC3HCH3CHC3HCH3CHC3HCH3CHC3HCH3CHC3HCH3CHC3HCH3CHC3HCH3CHC3HCH3CH
_chemical_formula_sum              "C384 N48 H276"
_cell_length_a       69.281
_cell_length_b       69.2809
_cell_length_c       14.8613
_cell_angle_alpha    90.0046
_cell_angle_beta     89.9098
_cell_angle_gamma    120

_space_group_name_H-M_alt    "P 1"
_space_group_IT_number       1

loop_
  _space_group_symop_operation_xyz
  'x, y, z'

loop_
  _atom_site_type_symbol
  _atom_site_label
  _atom_site_symmetry_multiplicity
  _atom_site_fract_x
  _atom_site_fract_y
  _atom_site_fract_z
  _atom_site_occupancy
  C   C1        1.0  0.21384  0.37868  0.33555  1.0000
  C   C2        1.0  0.23374  0.37852  0.33613  1.0000
  C   C3        1.0  0.25130  0.40053  0.33307  1.0000
  N   N1        1.0  0.24128  0.41313  0.33102  1.0000
  C   C4        1.0  0.21864  0.40080  0.33239  1.0000
  C   C5        1.0  0.20238  0.40771  0.33036  1.0000
  C   C6        1.0  0.20755  0.43036  0.32823  1.0000
  N   N2        1.0  0.22787  0.44900  0.32978  1.0000
  C   C7        1.0  0.22651  0.46782  0.32667  1.0000
  C   C8        1.0  0.20383  0.46083  0.32289  1.0000
  C   C9        1.0  0.19217  0.43782  0.32443  1.0000
  C   C10       1.0  0.24421  0.49029  0.32733  1.0000
  C   C11       1.0  0.26722  0.49683  0.33181  1.0000
  N   N3        1.0  0.27712  0.48417  0.33204  1.0000
  C   C12       1.0  0.29967  0.49658  0.33573  1.0000
  C   C13       1.0  0.30451  0.51872  0.33898  1.0000
  C   C14       1.0  0.28469  0.51887  0.33686  1.0000
  C   C15       1.0  0.31592  0.48972  0.33501  1.0000
  C   C16       1.0  0.31088  0.46717  0.33262  1.0000
  N   N4        1.0  0.29060  0.44847  0.33419  1.0000
  C   C17       1.0  0.29206  0.42971  0.33150  1.0000
  C   C18       1.0  0.31485  0.43697  0.32762  1.0000
  C   C19       1.0  0.32642  0.45998  0.32892  1.0000
  C   C20       1.0  0.27441  0.40713  0.33244  1.0000
  C   C21       1.0  0.28067  0.39023  0.33231  1.0000
  C   C22       1.0  0.29890  0.36107  0.32583  1.0000
  C   C23       1.0  0.28922  0.36476  0.24889  1.0000
  C   C24       1.0  0.28046  0.37929  0.25167  1.0000
  C   C25       1.0  0.33883  0.50682  0.33521  1.0000
  C   C26       1.0  0.38280  0.54462  0.33338  1.0000
  C   C27       1.0  0.37205  0.53386  0.25233  1.0000
  C   C28       1.0  0.35035  0.51527  0.25320  1.0000
  C   C29       1.0  0.23874  0.50762  0.32288  1.0000
  C   C30       1.0  0.24164  0.51937  0.24157  1.0000
  C   C31       1.0  0.23924  0.53838  0.23935  1.0000
  C   C32       1.0  0.23356  0.54595  0.31775  1.0000
  C   C33       1.0  0.17918  0.39106  0.33007  1.0000
  C   C34       1.0  0.16710  0.38442  0.24853  1.0000
  C   C35       1.0  0.13157  0.36300  0.33025  1.0000
  C   C36       1.0  0.14371  0.37062  0.24863  1.0000
  H   H1        1.0  0.13559  0.36694  0.18832  1.0000
  H   H2        1.0  0.17518  0.39037  0.18846  1.0000
  H   H3        1.0  0.19842  0.36471  0.33721  1.0000
  H   H4        1.0  0.23493  0.36440  0.33852  1.0000
  H   H5        1.0  0.24936  0.42912  0.32758  1.0000
  H   H6        1.0  0.26909  0.46822  0.32672  1.0000
  H   H7        1.0  0.17519  0.42831  0.32248  1.0000
  H   H8        1.0  0.19669  0.47064  0.31999  1.0000
  H   H9        1.0  0.24641  0.51469  0.18417  1.0000
  H   H10       1.0  0.24203  0.54690  0.18004  1.0000
  H   H11       1.0  0.28359  0.53303  0.33846  1.0000
  H   H12       1.0  0.31986  0.53276  0.34164  1.0000
  H   H13       1.0  0.32219  0.42735  0.32408  1.0000
  H   H14       1.0  0.34339  0.46966  0.32659  1.0000
  H   H15       1.0  0.34275  0.50835  0.19331  1.0000
  H   H16       1.0  0.37964  0.53973  0.19155  1.0000
  H   H17       1.0  0.27454  0.38235  0.19356  1.0000
  H   H18       1.0  0.28929  0.35756  0.18883  1.0000
  N   N5        1.0  0.40288  0.56296  0.33809  1.0000
  N   N6        1.0  0.23283  0.56476  0.31145  1.0000
  N   N7        1.0  0.10922  0.35129  0.33616  1.0000
  N   N8        1.0  0.30804  0.34808  0.31684  1.0000
  C   C37       1.0  0.69362  0.83748  0.33659  1.0000
  C   C38       1.0  0.69378  0.85755  0.33709  1.0000
  C   C39       1.0  0.67177  0.85309  0.33400  1.0000
  N   N9        1.0  0.65916  0.83047  0.33202  1.0000
  C   C40       1.0  0.67150  0.82016  0.33346  1.0000
  C   C41       1.0  0.66458  0.79699  0.33151  1.0000
  C   C42       1.0  0.64194  0.77951  0.32942  1.0000
  N   N10       1.0  0.62330  0.78119  0.33091  1.0000
  C   C43       1.0  0.60448  0.76101  0.32793  1.0000
  C   C44       1.0  0.61147  0.74531  0.32428  1.0000
  C   C45       1.0  0.63449  0.75667  0.32575  1.0000
  C   C46       1.0  0.58201  0.75624  0.32853  1.0000
  C   C47       1.0  0.57546  0.77271  0.33279  1.0000
  N   N11       1.0  0.58812  0.79526  0.33302  1.0000
  C   C48       1.0  0.57571  0.80541  0.33665  1.0000
  C   C49       1.0  0.55356  0.78810  0.33952  1.0000
  C   C50       1.0  0.55341  0.76814  0.33750  1.0000
  C   C51       1.0  0.58257  0.82851  0.33603  1.0000
  C   C52       1.0  0.60512  0.84603  0.33363  1.0000
  N   N12       1.0  0.62383  0.84445  0.33515  1.0000
  C   C53       1.0  0.64259  0.86467  0.33240  1.0000
  C   C54       1.0  0.63533  0.88021  0.32851  1.0000
  C   C55       1.0  0.61232  0.86876  0.32990  1.0000
  C   C56       1.0  0.66517  0.86961  0.33332  1.0000
  C   C57       1.0  0.68207  0.89276  0.33307  1.0000
  C   C58       1.0  0.71124  0.94014  0.32635  1.0000
  C   C59       1.0  0.70757  0.92674  0.24947  1.0000
  C   C60       1.0  0.69307  0.90346  0.25238  1.0000
  C   C61       1.0  0.56548  0.83433  0.33607  1.0000
  C   C62       1.0  0.52769  0.84051  0.33396  1.0000
  C   C63       1.0  0.53853  0.84053  0.25299  1.0000
  C   C64       1.0  0.55711  0.83741  0.25400  1.0000
  C   C65       1.0  0.56468  0.73343  0.32412  1.0000
  C   C66       1.0  0.55301  0.72456  0.24277  1.0000
  C   C67       1.0  0.53400  0.70315  0.24056  1.0000
  C   C68       1.0  0.52635  0.68993  0.31900  1.0000
  C   C69       1.0  0.68124  0.79044  0.33124  1.0000
  C   C70       1.0  0.68793  0.78500  0.24970  1.0000
  C   C71       1.0  0.70927  0.77086  0.33145  1.0000
  C   C72       1.0  0.70169  0.77536  0.24983  1.0000
  H   H19       1.0  0.70544  0.77095  0.18951  1.0000
  H   H20       1.0  0.68201  0.78711  0.18963  1.0000
  H   H21       1.0  0.70759  0.83603  0.33830  1.0000
  H   H22       1.0  0.70789  0.87285  0.33946  1.0000
  H   H23       1.0  0.64318  0.82257  0.32855  1.0000
  H   H24       1.0  0.60409  0.80319  0.32853  1.0000
  H   H25       1.0  0.64399  0.74920  0.32399  1.0000
  H   H26       1.0  0.60167  0.72836  0.32155  1.0000
  H   H27       1.0  0.55774  0.73400  0.18534  1.0000
  H   H28       1.0  0.52553  0.69741  0.18122  1.0000
  H   H29       1.0  0.53925  0.75287  0.33900  1.0000
  H   H30       1.0  0.53952  0.78942  0.34209  1.0000
  H   H31       1.0  0.64496  0.89716  0.32499  1.0000
  H   H32       1.0  0.60264  0.87606  0.32760  1.0000
  H   H33       1.0  0.56410  0.83674  0.19416  1.0000
  H   H34       1.0  0.53271  0.84224  0.19216  1.0000
  H   H35       1.0  0.69002  0.89444  0.19433  1.0000
  H   H36       1.0  0.71484  0.93399  0.18942  1.0000
  N   N13       1.0  0.50933  0.84223  0.33852  1.0000
  N   N14       1.0  0.50755  0.67039  0.31270  1.0000
  N   N15       1.0  0.72099  0.76023  0.33734  1.0000
  N   N16       1.0  0.72423  0.96227  0.31724  1.0000
  C   C73       1.0  0.23481  0.85845  0.33476  1.0000
  C   C74       1.0  0.21475  0.83855  0.33521  1.0000
  C   C75       1.0  0.21920  0.82099  0.33208  1.0000
  N   N17       1.0  0.24183  0.83101  0.33014  1.0000
  C   C76       1.0  0.25213  0.85365  0.33163  1.0000
  C   C77       1.0  0.27531  0.86991  0.32972  1.0000
  C   C78       1.0  0.29279  0.86474  0.32771  1.0000
  N   N18       1.0  0.29110  0.84442  0.32922  1.0000
  C   C79       1.0  0.31129  0.84578  0.32636  1.0000
  C   C80       1.0  0.32699  0.86847  0.32280  1.0000
  C   C81       1.0  0.31563  0.88012  0.32418  1.0000
  C   C82       1.0  0.31606  0.82808  0.32701  1.0000
  C   C83       1.0  0.29958  0.80506  0.33112  1.0000
  N   N19       1.0  0.27703  0.79517  0.33122  1.0000
  C   C84       1.0  0.26688  0.77261  0.33474  1.0000
  C   C85       1.0  0.28418  0.76776  0.33772  1.0000
  C   C86       1.0  0.30415  0.78758  0.33583  1.0000
  C   C87       1.0  0.24377  0.75637  0.33408  1.0000
  C   C88       1.0  0.22626  0.76140  0.33167  1.0000
  N   N20       1.0  0.22784  0.78169  0.33316  1.0000
  C   C89       1.0  0.20763  0.78023  0.33042  1.0000
  C   C90       1.0  0.19209  0.75744  0.32654  1.0000
  C   C91       1.0  0.20353  0.74587  0.32789  1.0000
  C   C92       1.0  0.20269  0.79788  0.33136  1.0000
  C   C93       1.0  0.17954  0.79163  0.33116  1.0000
  C   C94       1.0  0.13216  0.77341  0.32470  1.0000
  C   C95       1.0  0.14558  0.78312  0.24773  1.0000
  C   C96       1.0  0.16886  0.79189  0.25052  1.0000
  C   C97       1.0  0.23796  0.73346  0.33418  1.0000
  C   C98       1.0  0.23177  0.68948  0.33228  1.0000
  C   C99       1.0  0.23182  0.70029  0.25125  1.0000
  C   C100      1.0  0.23494  0.72200  0.25215  1.0000
  C   C101      1.0  0.33887  0.83356  0.32278  1.0000
  C   C102      1.0  0.34784  0.83077  0.24155  1.0000
  C   C103      1.0  0.36927  0.83320  0.23955  1.0000
  C   C104      1.0  0.38238  0.83874  0.31814  1.0000
  C   C105      1.0  0.28186  0.89311  0.32952  1.0000
  C   C106      1.0  0.28740  0.90528  0.24803  1.0000
  C   C107      1.0  0.30144  0.94073  0.32994  1.0000
  C   C108      1.0  0.29702  0.92867  0.24826  1.0000
  H   H37       1.0  0.30149  0.93684  0.18798  1.0000
  H   H38       1.0  0.28533  0.89725  0.18794  1.0000
  H   H39       1.0  0.23626  0.87387  0.33649  1.0000
  H   H40       1.0  0.19945  0.83736  0.33757  1.0000
  H   H41       1.0  0.24973  0.82293  0.32655  1.0000
  H   H42       1.0  0.26911  0.80322  0.32674  1.0000
  H   H43       1.0  0.32311  0.89711  0.32240  1.0000
  H   H44       1.0  0.34394  0.87561  0.32012  1.0000
  H   H45       1.0  0.33850  0.82613  0.18398  1.0000
  H   H46       1.0  0.37509  0.83049  0.18026  1.0000
  H   H47       1.0  0.31942  0.78869  0.33743  1.0000
  H   H48       1.0  0.28286  0.75241  0.34029  1.0000
  H   H49       1.0  0.17514  0.75011  0.32306  1.0000
  H   H50       1.0  0.19624  0.72890  0.32570  1.0000
  H   H51       1.0  0.23567  0.72965  0.19228  1.0000
  H   H52       1.0  0.23017  0.69276  0.19045  1.0000
  H   H53       1.0  0.17790  0.79785  0.19243  1.0000
  H   H54       1.0  0.13835  0.78312  0.18770  1.0000
  N   N21       1.0  0.23005  0.66941  0.33695  1.0000
  N   N22       1.0  0.40193  0.83949  0.31204  1.0000
  N   N23       1.0  0.31205  0.96307  0.33594  1.0000
  N   N24       1.0  0.11004  0.76429  0.31573  1.0000
  C   C109      1.0  0.88100  0.67106  0.33676  1.0000
  C   C110      1.0  0.86110  0.67122  0.33739  1.0000
  C   C111      1.0  0.84354  0.64921  0.33427  1.0000
  N   N25       1.0  0.85356  0.63661  0.33220  1.0000
  C   C112      1.0  0.87620  0.64894  0.33351  1.0000
  C   C113      1.0  0.89246  0.64202  0.33133  1.0000
  C   C114      1.0  0.88729  0.61938  0.32929  1.0000
  N   N26       1.0  0.86698  0.60074  0.33109  1.0000
  C   C115      1.0  0.86834  0.58192  0.32808  1.0000
  C   C116      1.0  0.89102  0.58891  0.32410  1.0000
  C   C117      1.0  0.90268  0.61193  0.32540  1.0000
  C   C118      1.0  0.85064  0.55945  0.32894  1.0000
  C   C119      1.0  0.82763  0.55291  0.33347  1.0000
  N   N27       1.0  0.81773  0.56557  0.33369  1.0000
  C   C120      1.0  0.79517  0.55316  0.33747  1.0000
  C   C121      1.0  0.79033  0.53101  0.34066  1.0000
  C   C122      1.0  0.81015  0.53086  0.33856  1.0000
  C   C123      1.0  0.77893  0.56002  0.33683  1.0000
  C   C124      1.0  0.78396  0.58257  0.33428  1.0000
  N   N28       1.0  0.80425  0.60127  0.33568  1.0000
  C   C125      1.0  0.80279  0.62003  0.33283  1.0000
  C   C126      1.0  0.77999  0.61277  0.32900  1.0000
  C   C127      1.0  0.76843  0.58976  0.33048  1.0000
  C   C128      1.0  0.82043  0.64261  0.33363  1.0000
  C   C129      1.0  0.81418  0.65951  0.33339  1.0000
  C   C130      1.0  0.79598  0.68869  0.32678  1.0000
  C   C131      1.0  0.80573  0.68501  0.24986  1.0000
  C   C132      1.0  0.81450  0.67050  0.25274  1.0000
  C   C133      1.0  0.75602  0.54292  0.33706  1.0000
  C   C134      1.0  0.71205  0.50512  0.33525  1.0000
  C   C135      1.0  0.72286  0.51592  0.25420  1.0000
  C   C136      1.0  0.74457  0.53449  0.25505  1.0000
  C   C137      1.0  0.85611  0.54212  0.32451  1.0000
  C   C138      1.0  0.85327  0.53038  0.24325  1.0000
  C   C139      1.0  0.85567  0.51137  0.24110  1.0000
  C   C140      1.0  0.86127  0.50378  0.31954  1.0000
  C   C141      1.0  0.91566  0.65868  0.33085  1.0000
  C   C142      1.0  0.92778  0.66535  0.24920  1.0000
  C   C143      1.0  0.96329  0.68669  0.33060  1.0000
  C   C144      1.0  0.95117  0.67912  0.24908  1.0000
  H   H55       1.0  0.95930  0.68285  0.18867  1.0000
  H   H56       1.0  0.91971  0.65944  0.18919  1.0000
  H   H57       1.0  0.89642  0.68503  0.33841  1.0000
  H   H58       1.0  0.85991  0.68533  0.33982  1.0000
  H   H59       1.0  0.84549  0.62063  0.32834  1.0000
  H   H60       1.0  0.82577  0.58153  0.32871  1.0000
  H   H61       1.0  0.91966  0.62143  0.32333  1.0000
  H   H62       1.0  0.89816  0.57910  0.32121  1.0000
  H   H63       1.0  0.84856  0.53509  0.18582  1.0000
  H   H64       1.0  0.85293  0.50287  0.18181  1.0000
  H   H65       1.0  0.81126  0.51670  0.34013  1.0000
  H   H66       1.0  0.77498  0.51698  0.34342  1.0000
  H   H67       1.0  0.77266  0.62239  0.32544  1.0000
  H   H68       1.0  0.75146  0.58008  0.32833  1.0000
  H   H69       1.0  0.75222  0.54144  0.19515  1.0000
  H   H70       1.0  0.71533  0.51005  0.19342  1.0000
  H   H71       1.0  0.82046  0.66743  0.19465  1.0000
  H   H72       1.0  0.80573  0.69225  0.18982  1.0000
  N   N29       1.0  0.69197  0.48677  0.33998  1.0000
  N   N30       1.0  0.86202  0.48498  0.31330  1.0000
  N   N31       1.0  0.98563  0.69842  0.33626  1.0000
  N   N32       1.0  0.78685  0.70168  0.31771  1.0000
  C   C145      1.0  0.40123  0.21226  0.33701  1.0000
  C   C146      1.0  0.40106  0.19219  0.33752  1.0000
  C   C147      1.0  0.42308  0.19665  0.33466  1.0000
  N   N33       1.0  0.43568  0.21927  0.33281  1.0000
  C   C148      1.0  0.42335  0.22958  0.33410  1.0000
  C   C149      1.0  0.43027  0.25276  0.33221  1.0000
  C   C150      1.0  0.45292  0.27023  0.33034  1.0000
  N   N34       1.0  0.47155  0.26855  0.33207  1.0000
  C   C151      1.0  0.49037  0.28873  0.32918  1.0000
  C   C152      1.0  0.48339  0.30443  0.32535  1.0000
  C   C153      1.0  0.46037  0.29307  0.32665  1.0000
  C   C154      1.0  0.51284  0.29350  0.33002  1.0000
  C   C155      1.0  0.51938  0.27703  0.33451  1.0000
  N   N35       1.0  0.50672  0.25447  0.33463  1.0000
  C   C156      1.0  0.51912  0.24432  0.33832  1.0000
  C   C157      1.0  0.54127  0.26163  0.34171  1.0000
  C   C158      1.0  0.54142  0.28160  0.33967  1.0000
  C   C159      1.0  0.51227  0.22122  0.33743  1.0000
  C   C160      1.0  0.48972  0.20371  0.33480  1.0000
  N   N36       1.0  0.47102  0.20529  0.33624  1.0000
  C   C161      1.0  0.45226  0.18508  0.33328  1.0000
  C   C162      1.0  0.45952  0.16954  0.32937  1.0000
  C   C163      1.0  0.48253  0.18098  0.33092  1.0000
  C   C164      1.0  0.42967  0.18014  0.33401  1.0000
  C   C165      1.0  0.41277  0.15698  0.33357  1.0000
  C   C166      1.0  0.38362  0.10960  0.32645  1.0000
  C   C167      1.0  0.38738  0.12307  0.24966  1.0000
  C   C168      1.0  0.40191  0.14635  0.25275  1.0000
  C   C169      1.0  0.52937  0.21541  0.33758  1.0000
  C   C170      1.0  0.56717  0.20924  0.33560  1.0000
  C   C171      1.0  0.55642  0.20927  0.25459  1.0000
  C   C172      1.0  0.53783  0.21239  0.25552  1.0000
  C   C173      1.0  0.53018  0.31631  0.32567  1.0000
  C   C174      1.0  0.54197  0.32521  0.24441  1.0000
  C   C175      1.0  0.56098  0.34662  0.24228  1.0000
  C   C176      1.0  0.56851  0.35982  0.32071  1.0000
  C   C177      1.0  0.41361  0.25930  0.33173  1.0000
  C   C178      1.0  0.40703  0.26479  0.25010  1.0000
  C   C179      1.0  0.38556  0.27887  0.33157  1.0000
  C   C180      1.0  0.39324  0.27439  0.25003  1.0000
  H   H73       1.0  0.38960  0.27885  0.18966  1.0000
  H   H74       1.0  0.41302  0.26268  0.19010  1.0000
  H   H75       1.0  0.38725  0.21371  0.33856  1.0000
  H   H76       1.0  0.38695  0.17689  0.33972  1.0000
  H   H77       1.0  0.45167  0.22718  0.32952  1.0000
  H   H78       1.0  0.49077  0.24656  0.32923  1.0000
  H   H79       1.0  0.45087  0.30055  0.32461  1.0000
  H   H80       1.0  0.49320  0.32138  0.32256  1.0000
  H   H81       1.0  0.53731  0.31580  0.18698  1.0000
  H   H82       1.0  0.56952  0.35239  0.18299  1.0000
  H   H83       1.0  0.55558  0.29687  0.34136  1.0000
  H   H84       1.0  0.55531  0.26031  0.34440  1.0000
  H   H85       1.0  0.44990  0.15259  0.32565  1.0000
  H   H86       1.0  0.49221  0.17369  0.32861  1.0000
  H   H87       1.0  0.53092  0.21310  0.19566  1.0000
  H   H88       1.0  0.56231  0.20760  0.19378  1.0000
  H   H89       1.0  0.40502  0.15541  0.19475  1.0000
  H   H90       1.0  0.38023  0.11587  0.18949  1.0000
  N   N37       1.0  0.58551  0.20751  0.34023  1.0000
  N   N38       1.0  0.58731  0.37936  0.31448  1.0000
  N   N39       1.0  0.37384  0.28950  0.33729  1.0000
  N   N40       1.0  0.37064  0.08748  0.31716  1.0000
  C   C181      1.0  0.86004  0.19129  0.33615  1.0000
  C   C182      1.0  0.88010  0.21119  0.33661  1.0000
  C   C183      1.0  0.87565  0.22875  0.33361  1.0000
  N   N41       1.0  0.85303  0.21873  0.33170  1.0000
  C   C184      1.0  0.84272  0.19609  0.33313  1.0000
  C   C185      1.0  0.81955  0.17983  0.33127  1.0000
  C   C186      1.0  0.80207  0.18500  0.32935  1.0000
  N   N42       1.0  0.80375  0.20531  0.33094  1.0000
  C   C187      1.0  0.78357  0.20396  0.32813  1.0000
  C   C188      1.0  0.76787  0.18127  0.32451  1.0000
  C   C189      1.0  0.77923  0.16961  0.32581  1.0000
  C   C190      1.0  0.77880  0.22165  0.32889  1.0000
  C   C191      1.0  0.79526  0.24467  0.33307  1.0000
  N   N43       1.0  0.81782  0.25456  0.33313  1.0000
  C   C192      1.0  0.82797  0.27712  0.33675  1.0000
  C   C193      1.0  0.81066  0.28196  0.33979  1.0000
  C   C194      1.0  0.79070  0.26215  0.33789  1.0000
  C   C195      1.0  0.85107  0.29336  0.33600  1.0000
  C   C196      1.0  0.86859  0.28833  0.33346  1.0000
  N   N44       1.0  0.86701  0.26805  0.33492  1.0000
  C   C197      1.0  0.88722  0.26951  0.33206  1.0000
  C   C198      1.0  0.90276  0.29230  0.32814  1.0000
  C   C199      1.0  0.89132  0.30387  0.32964  1.0000
  C   C200      1.0  0.89216  0.25186  0.33291  1.0000
  C   C201      1.0  0.91532  0.25812  0.33260  1.0000
  C   C202      1.0  0.96270  0.27633  0.32579  1.0000
  C   C203      1.0  0.94931  0.26662  0.24893  1.0000
  C   C204      1.0  0.92603  0.25785  0.25189  1.0000
  C   C205      1.0  0.85689  0.31627  0.33612  1.0000
  C   C206      1.0  0.86307  0.36025  0.33422  1.0000
  C   C207      1.0  0.86307  0.34947  0.25319  1.0000
  C   C208      1.0  0.85995  0.32776  0.25408  1.0000
  C   C209      1.0  0.75598  0.21617  0.32470  1.0000
  C   C210      1.0  0.74709  0.21900  0.24346  1.0000
  C   C211      1.0  0.72567  0.21660  0.24149  1.0000
  C   C212      1.0  0.71248  0.21100  0.32006  1.0000
  C   C213      1.0  0.81300  0.15663  0.33094  1.0000
  C   C214      1.0  0.80756  0.14453  0.24938  1.0000
  C   C215      1.0  0.79342  0.10901  0.33108  1.0000
  C   C216      1.0  0.79792  0.12113  0.24947  1.0000
  H   H91       1.0  0.79351  0.11300  0.18915  1.0000
  H   H92       1.0  0.80967  0.15259  0.18933  1.0000
  H   H93       1.0  0.85860  0.17587  0.33782  1.0000
  H   H94       1.0  0.89541  0.21238  0.33890  1.0000
  H   H95       1.0  0.84512  0.22681  0.32830  1.0000
  H   H96       1.0  0.82574  0.24652  0.32855  1.0000
  H   H97       1.0  0.77176  0.15263  0.32402  1.0000
  H   H98       1.0  0.75092  0.17412  0.32191  1.0000
  H   H99       1.0  0.75650  0.22372  0.18594  1.0000
  H   H100      1.0  0.71992  0.21934  0.18222  1.0000
  H   H101      1.0  0.77543  0.26104  0.33951  1.0000
  H   H102      1.0  0.81198  0.29732  0.34241  1.0000
  H   H103      1.0  0.91972  0.29964  0.32454  1.0000
  H   H104      1.0  0.89861  0.32084  0.32734  1.0000
  H   H105      1.0  0.85928  0.32014  0.19421  1.0000
  H   H106      1.0  0.86477  0.35703  0.19239  1.0000
  H   H107      1.0  0.91702  0.25190  0.19385  1.0000
  H   H108      1.0  0.95656  0.26664  0.18886  1.0000
  N   N45       1.0  0.86478  0.38032  0.33889  1.0000
  N   N46       1.0  0.69294  0.21026  0.31396  1.0000
  N   N47       1.0  0.78279  0.08667  0.33694  1.0000
  N   N48       1.0  0.98483  0.28546  0.31665  1.0000
  C   C217      1.0  0.22641  0.63459  0.29888  1.0000
  C   C218      1.0  0.21826  0.61730  0.23447  1.0000
  C   C219      1.0  0.21693  0.59657  0.25143  1.0000
  H   H109      1.0  0.21298  0.61984  0.17351  1.0000
  C   C220      1.0  0.20758  0.57916  0.17978  1.0000
  H   H110      1.0  0.20164  0.58421  0.12128  1.0000
  H   H111      1.0  0.19352  0.56392  0.20642  1.0000
  H   H112      1.0  0.22036  0.57554  0.15631  1.0000
  C   C221      1.0  0.22767  0.65484  0.27754  1.0000
  H   H113      1.0  0.22666  0.65810  0.21317  1.0000
  C   C222      1.0  0.43772  0.59414  0.30007  1.0000
  C   C223      1.0  0.45506  0.60327  0.23569  1.0000
  C   C224      1.0  0.47578  0.62268  0.25267  1.0000
  H   H114      1.0  0.45256  0.59547  0.17470  1.0000
  C   C225      1.0  0.49324  0.63074  0.18103  1.0000
  H   H115      1.0  0.48823  0.61975  0.12253  1.0000
  H   H116      1.0  0.50846  0.63192  0.20768  1.0000
  H   H117      1.0  0.49688  0.64714  0.15757  1.0000
  C   C226      1.0  0.41748  0.57517  0.27869  1.0000
  H   H118      1.0  0.41425  0.57092  0.21431  1.0000
  C   C227      1.0  0.47821  0.84595  0.30023  1.0000
  C   C228      1.0  0.46916  0.85417  0.23577  1.0000
  C   C229      1.0  0.44972  0.85546  0.25256  1.0000
  H   H119      1.0  0.47705  0.85952  0.17489  1.0000
  C   C230      1.0  0.44175  0.86488  0.18086  1.0000
  H   H120      1.0  0.45282  0.87090  0.12249  1.0000
  H   H121      1.0  0.44052  0.87891  0.20754  1.0000
  H   H122      1.0  0.42538  0.85212  0.15719  1.0000
  C   C231      1.0  0.49724  0.84473  0.27906  1.0000
  H   H123      1.0  0.50164  0.84590  0.21477  1.0000
  C   C232      1.0  0.86848  0.41517  0.30082  1.0000
  C   C233      1.0  0.87670  0.43249  0.23641  1.0000
  C   C234      1.0  0.87799  0.45320  0.25335  1.0000
  H   H124      1.0  0.88203  0.42998  0.17545  1.0000
  C   C235      1.0  0.88740  0.47064  0.18169  1.0000
  H   H125      1.0  0.89340  0.46562  0.12321  1.0000
  H   H126      1.0  0.90143  0.48588  0.20834  1.0000
  H   H127      1.0  0.87463  0.47426  0.15820  1.0000
  C   C236      1.0  0.86726  0.39494  0.27951  1.0000
  H   H128      1.0  0.86839  0.39173  0.21516  1.0000
  C   C237      1.0  0.65715  0.45562  0.30196  1.0000
  C   C238      1.0  0.63987  0.44652  0.23756  1.0000
  C   C239      1.0  0.61914  0.42710  0.25453  1.0000
  H   H129      1.0  0.64241  0.45435  0.17661  1.0000
  C   C240      1.0  0.60174  0.41907  0.18289  1.0000
  H   H130      1.0  0.60680  0.43009  0.12441  1.0000
  H   H131      1.0  0.58649  0.41788  0.20956  1.0000
  H   H132      1.0  0.59812  0.40268  0.15940  1.0000
  C   C241      1.0  0.67740  0.47461  0.28060  1.0000
  H   H133      1.0  0.68067  0.47891  0.21623  1.0000
  C   C242      1.0  0.61667  0.20382  0.30203  1.0000
  C   C243      1.0  0.62579  0.19562  0.23759  1.0000
  C   C244      1.0  0.64520  0.19432  0.25442  1.0000
  H   H134      1.0  0.61796  0.19031  0.17669  1.0000
  C   C245      1.0  0.65325  0.18493  0.18274  1.0000
  H   H135      1.0  0.64223  0.17894  0.12436  1.0000
  H   H136      1.0  0.65445  0.17089  0.20942  1.0000
  H   H137      1.0  0.66964  0.19770  0.15909  1.0000
  C   C246      1.0  0.59768  0.20507  0.28079  1.0000
  H   H138      1.0  0.59339  0.20400  0.21646  1.0000
  C   C247      1.0  0.07074  0.33087  0.29857  1.0000
  C   C248      1.0  0.05525  0.32864  0.23185  1.0000
  C   C249      1.0  0.03205  0.31838  0.24900  1.0000
  H   H139      1.0  0.06112  0.33514  0.16922  1.0000
  C   C250      1.0  0.01726  0.31778  0.17476  1.0000
  H   H140      1.0  0.02642  0.32622  0.11380  1.0000
  H   H141      1.0  0.00800  0.32589  0.19630  1.0000
  H   H142      1.0  0.00552  0.30052  0.15684  1.0000
  C   C251      1.0  0.09352  0.34151  0.27761  1.0000
  H   H143      1.0  0.09775  0.34217  0.21329  1.0000
  C   C252      1.0  0.74143  0.74217  0.29974  1.0000
  C   C253      1.0  0.74369  0.72889  0.23304  1.0000
  C   C254      1.0  0.75395  0.71597  0.25015  1.0000
  H   H144      1.0  0.73723  0.72825  0.17040  1.0000
  C   C255      1.0  0.75461  0.70179  0.17593  1.0000
  H   H145      1.0  0.74619  0.70248  0.11498  1.0000
  H   H146      1.0  0.74650  0.68440  0.19749  1.0000
  H   H147      1.0  0.77188  0.70731  0.15795  1.0000
  C   C256      1.0  0.73079  0.75429  0.27878  1.0000
  H   H148      1.0  0.73015  0.75784  0.21446  1.0000
  C   C257      1.0  0.33016  0.00159  0.29856  1.0000
  C   C258      1.0  0.34350  0.01715  0.23197  1.0000
  C   C259      1.0  0.35641  0.04034  0.24926  1.0000
  H   H149      1.0  0.34420  0.01135  0.16931  1.0000
  C   C260      1.0  0.37067  0.05520  0.17515  1.0000
  H   H150      1.0  0.37002  0.04610  0.11415  1.0000
  H   H151      1.0  0.38803  0.06445  0.19680  1.0000
  H   H152      1.0  0.36518  0.06696  0.15725  1.0000
  C   C261      1.0  0.31806  0.97883  0.27746  1.0000
  H   H153      1.0  0.31459  0.97467  0.21310  1.0000
  C   C262      1.0  0.02412  0.71885  0.29833  1.0000
  C   C263      1.0  0.03965  0.72109  0.23149  1.0000
  C   C264      1.0  0.06284  0.73137  0.24844  1.0000
  H   H154      1.0  0.03381  0.71460  0.16890  1.0000
  C   C265      1.0  0.07767  0.73200  0.17409  1.0000
  H   H155      1.0  0.06853  0.72356  0.11321  1.0000
  H   H156      1.0  0.08694  0.72390  0.19556  1.0000
  H   H157      1.0  0.08940  0.74926  0.15607  1.0000
  C   C266      1.0  0.00136  0.70819  0.27756  1.0000
  H   H158      1.0  0.99714  0.70750  0.21327  1.0000
  C   C267      1.0  0.35345  0.30757  0.29942  1.0000
  C   C268      1.0  0.35126  0.32086  0.23259  1.0000
  C   C269      1.0  0.34100  0.33380  0.24956  1.0000
  H   H159      1.0  0.35780  0.32151  0.17001  1.0000
  C   C270      1.0  0.34043  0.34800  0.17522  1.0000
  H   H160      1.0  0.34891  0.34730  0.11433  1.0000
  H   H161      1.0  0.34854  0.36538  0.19671  1.0000
  H   H162      1.0  0.32319  0.34250  0.15719  1.0000
  C   C271      1.0  0.36410  0.29544  0.27863  1.0000
  H   H163      1.0  0.36480  0.29189  0.21434  1.0000
  C   C272      1.0  0.76474  0.04818  0.29928  1.0000
  C   C273      1.0  0.75148  0.03267  0.23255  1.0000
  C   C274      1.0  0.73855  0.00948  0.24964  1.0000
  H   H164      1.0  0.75088  0.03853  0.16991  1.0000
  C   C275      1.0  0.72440  0.99468  0.17538  1.0000
  H   H165      1.0  0.72513  0.00383  0.11443  1.0000
  H   H166      1.0  0.70701  0.98540  0.19688  1.0000
  H   H167      1.0  0.72992  0.98294  0.15745  1.0000
  C   C276      1.0  0.77687  0.07095  0.27835  1.0000
  H   H168      1.0  0.78045  0.07517  0.21404  1.0000
  C   C277      1.0  0.28965  0.38594  0.41025  1.0000
  C   C278      1.0  0.29862  0.37161  0.40708  1.0000
  C   C279      1.0  0.34959  0.51727  0.41634  1.0000
  C   C280      1.0  0.37129  0.53591  0.41521  1.0000
  C   C281      1.0  0.23039  0.53403  0.39892  1.0000
  C   C282      1.0  0.23303  0.51514  0.40152  1.0000
  C   C283      1.0  0.16718  0.38328  0.41163  1.0000
  C   C284      1.0  0.14378  0.36946  0.41149  1.0000
  H   H169      1.0  0.13559  0.36467  0.47188  1.0000
  H   H170      1.0  0.17533  0.38834  0.47192  1.0000
  H   H171      1.0  0.23149  0.50736  0.46182  1.0000
  H   H172      1.0  0.22696  0.53949  0.45744  1.0000
  H   H173      1.0  0.34143  0.51183  0.47655  1.0000
  H   H174      1.0  0.37846  0.54343  0.47493  1.0000
  H   H175      1.0  0.30532  0.36924  0.46438  1.0000
  H   H176      1.0  0.29043  0.39389  0.46935  1.0000
  C   C285      1.0  0.68632  0.90605  0.41095  1.0000
  C   C286      1.0  0.70065  0.92935  0.40764  1.0000
  C   C287      1.0  0.55494  0.83463  0.41712  1.0000
  C   C288      1.0  0.53630  0.83769  0.41586  1.0000
  C   C289      1.0  0.53821  0.69868  0.40018  1.0000
  C   C290      1.0  0.55709  0.72021  0.40278  1.0000
  C   C291      1.0  0.68896  0.78623  0.41280  1.0000
  C   C292      1.0  0.70278  0.77665  0.41268  1.0000
  H   H177      1.0  0.70753  0.77324  0.47307  1.0000
  H   H178      1.0  0.68387  0.78933  0.47309  1.0000
  H   H179      1.0  0.56481  0.72648  0.46312  1.0000
  H   H180      1.0  0.53267  0.68981  0.45874  1.0000
  H   H181      1.0  0.56029  0.83187  0.47736  1.0000
  H   H182      1.0  0.52870  0.83730  0.47551  1.0000
  H   H183      1.0  0.70300  0.93844  0.46491  1.0000
  H   H184      1.0  0.67834  0.89891  0.47008  1.0000
  C   C293      1.0  0.16622  0.78261  0.40912  1.0000
  C   C294      1.0  0.14292  0.77364  0.40595  1.0000
  C   C295      1.0  0.23759  0.72263  0.41531  1.0000
  C   C296      1.0  0.23450  0.70093  0.41414  1.0000
  C   C297      1.0  0.37352  0.84182  0.39923  1.0000
  C   C298      1.0  0.35198  0.83915  0.40160  1.0000
  C   C299      1.0  0.28598  0.90503  0.41114  1.0000
  C   C300      1.0  0.29558  0.92843  0.41111  1.0000
  H   H185      1.0  0.29890  0.93657  0.47153  1.0000
  H   H186      1.0  0.28283  0.89683  0.47138  1.0000
  H   H187      1.0  0.34564  0.84060  0.46186  1.0000
  H   H188      1.0  0.38230  0.84512  0.45789  1.0000
  H   H189      1.0  0.24026  0.73075  0.47553  1.0000
  H   H190      1.0  0.23483  0.69372  0.47384  1.0000
  H   H191      1.0  0.13381  0.76693  0.46327  1.0000
  H   H192      1.0  0.17335  0.78179  0.46824  1.0000
  C   C301      1.0  0.80513  0.66378  0.41130  1.0000
  C   C302      1.0  0.79617  0.67812  0.40805  1.0000
  C   C303      1.0  0.74518  0.53243  0.41819  1.0000
  C   C304      1.0  0.72349  0.51380  0.41708  1.0000
  C   C305      1.0  0.86444  0.51572  0.40063  1.0000
  C   C306      1.0  0.86179  0.53460  0.40316  1.0000
  C   C307      1.0  0.92765  0.66640  0.41229  1.0000
  C   C308      1.0  0.95105  0.68022  0.41195  1.0000
  H   H193      1.0  0.95923  0.68499  0.47226  1.0000
  H   H194      1.0  0.91948  0.66135  0.47266  1.0000
  H   H195      1.0  0.86326  0.54236  0.46345  1.0000
  H   H196      1.0  0.86778  0.51022  0.45920  1.0000
  H   H197      1.0  0.75330  0.53786  0.47840  1.0000
  H   H198      1.0  0.71627  0.50625  0.47680  1.0000
  H   H199      1.0  0.78942  0.68048  0.46533  1.0000
  H   H200      1.0  0.80428  0.65581  0.47042  1.0000
  C   C309      1.0  0.40842  0.14362  0.41134  1.0000
  C   C310      1.0  0.39409  0.12032  0.40786  1.0000
  C   C311      1.0  0.53981  0.21505  0.41868  1.0000
  C   C312      1.0  0.55845  0.21199  0.41747  1.0000
  C   C313      1.0  0.55655  0.35102  0.40184  1.0000
  C   C314      1.0  0.53766  0.32949  0.40435  1.0000
  C   C315      1.0  0.40578  0.26349  0.41319  1.0000
  C   C316      1.0  0.39196  0.27307  0.41289  1.0000
  H   H201      1.0  0.38713  0.27645  0.47321  1.0000
  H   H202      1.0  0.41079  0.26037  0.47355  1.0000
  H   H203      1.0  0.52985  0.32321  0.46462  1.0000
  H   H204      1.0  0.56199  0.35988  0.46038  1.0000
  H   H205      1.0  0.53435  0.21774  0.47890  1.0000
  H   H206      1.0  0.56596  0.21232  0.47717  1.0000
  H   H207      1.0  0.39167  0.11118  0.46505  1.0000
  H   H208      1.0  0.41631  0.15071  0.47057  1.0000
  C   C317      1.0  0.92860  0.26712  0.41047  1.0000
  C   C318      1.0  0.95190  0.27610  0.40711  1.0000
  C   C319      1.0  0.85720  0.32707  0.41724  1.0000
  C   C320      1.0  0.86026  0.34877  0.41607  1.0000
  C   C321      1.0  0.72127  0.20788  0.40114  1.0000
  C   C322      1.0  0.74280  0.21052  0.40350  1.0000
  C   C323      1.0  0.80879  0.14465  0.41248  1.0000
  C   C324      1.0  0.79920  0.12125  0.41232  1.0000
  H   H209      1.0  0.79580  0.11306  0.47269  1.0000
  H   H210      1.0  0.81188  0.15280  0.47279  1.0000
  H   H211      1.0  0.74909  0.20906  0.46376  1.0000
  H   H212      1.0  0.71242  0.20453  0.45978  1.0000
  H   H213      1.0  0.85445  0.31892  0.47745  1.0000
  H   H214      1.0  0.85988  0.35595  0.47577  1.0000
  H   H215      1.0  0.96098  0.28280  0.46436  1.0000
  H   H216      1.0  0.92145  0.26794  0.46961  1.0000
  C   C325      1.0  0.22433  0.59296  0.33612  1.0000
  C   C326      1.0  0.23273  0.61024  0.40218  1.0000
  C   C327      1.0  0.23359  0.63065  0.38228  1.0000
  H   H217      1.0  0.23981  0.64305  0.42968  1.0000
  C   C328      1.0  0.24115  0.60856  0.49258  1.0000
  H   H218      1.0  0.24095  0.59292  0.50375  1.0000
  H   H219      1.0  0.23095  0.61015  0.54490  1.0000
  H   H220      1.0  0.25835  0.62200  0.50066  1.0000
  C   C329      1.0  0.22213  0.57232  0.35620  1.0000
  H   H221      1.0  0.21195  0.56341  0.40595  1.0000
  C   C330      1.0  0.47933  0.63369  0.33737  1.0000
  C   C331      1.0  0.46201  0.62481  0.40341  1.0000
  C   C332      1.0  0.44160  0.60526  0.38348  1.0000
  H   H222      1.0  0.42917  0.59909  0.43086  1.0000
  C   C333      1.0  0.46362  0.63491  0.49381  1.0000
  H   H223      1.0  0.47925  0.65035  0.50500  1.0000
  H   H224      1.0  0.46199  0.62312  0.54613  1.0000
  H   H225      1.0  0.45018  0.63867  0.50187  1.0000
  C   C334      1.0  0.49995  0.65213  0.35747  1.0000
  H   H226      1.0  0.50883  0.65086  0.40723  1.0000
  C   C335      1.0  0.43860  0.84796  0.33712  1.0000
  C   C336      1.0  0.44740  0.83950  0.40324  1.0000
  C   C337      1.0  0.46699  0.83867  0.38350  1.0000
  H   H227      1.0  0.47310  0.83240  0.43095  1.0000
  C   C338      1.0  0.43718  0.83097  0.49351  1.0000
  H   H228      1.0  0.42172  0.83114  0.50454  1.0000
  H   H229      1.0  0.44890  0.84112  0.54597  1.0000
  H   H230      1.0  0.43343  0.81376  0.50150  1.0000
  C   C339      1.0  0.42013  0.85013  0.35705  1.0000
  H   H231      1.0  0.42132  0.86024  0.40688  1.0000
  C   C340      1.0  0.87051  0.45678  0.33803  1.0000
  C   C341      1.0  0.86205  0.43947  0.40409  1.0000
  C   C342      1.0  0.86123  0.41907  0.38421  1.0000
  H   H232      1.0  0.85496  0.40666  0.43161  1.0000
  C   C343      1.0  0.85354  0.44111  0.49447  1.0000
  H   H233      1.0  0.85372  0.45674  0.50562  1.0000
  H   H234      1.0  0.86370  0.43951  0.54681  1.0000
  H   H235      1.0  0.83634  0.42766  0.50254  1.0000
  C   C344      1.0  0.87268  0.47740  0.35810  1.0000
  H   H236      1.0  0.88281  0.48629  0.40787  1.0000
  C   C345      1.0  0.61550  0.41605  0.33922  1.0000
  C   C346      1.0  0.63277  0.42490  0.40527  1.0000
  C   C347      1.0  0.65319  0.44447  0.38535  1.0000
  H   H237      1.0  0.66558  0.45061  0.43275  1.0000
  C   C348      1.0  0.63108  0.41476  0.49565  1.0000
  H   H238      1.0  0.61544  0.39931  0.50683  1.0000
  H   H239      1.0  0.63266  0.42652  0.54798  1.0000
  H   H240      1.0  0.64452  0.41100  0.50371  1.0000
  C   C349      1.0  0.59487  0.39760  0.35928  1.0000
  H   H241      1.0  0.58594  0.39884  0.40906  1.0000
  C   C350      1.0  0.65625  0.20178  0.33900  1.0000
  C   C351      1.0  0.64738  0.21021  0.40509  1.0000
  C   C352      1.0  0.62781  0.21105  0.38532  1.0000
  H   H242      1.0  0.62166  0.21731  0.43275  1.0000
  C   C353      1.0  0.65751  0.21870  0.49539  1.0000
  H   H243      1.0  0.67296  0.21852  0.50645  1.0000
  H   H244      1.0  0.64574  0.20853  0.54783  1.0000
  H   H245      1.0  0.66126  0.23590  0.50338  1.0000
  C   C354      1.0  0.67470  0.19960  0.35895  1.0000
  H   H246      1.0  0.67346  0.18946  0.40876  1.0000
  C   C355      1.0  0.02365  0.30943  0.33629  1.0000
  C   C356      1.0  0.03903  0.31112  0.40425  1.0000
  C   C357      1.0  0.06216  0.32181  0.38423  1.0000
  H   H247      1.0  0.07303  0.32296  0.43344  1.0000
  C   C358      1.0  0.03242  0.30216  0.49744  1.0000
  H   H248      1.0  0.01446  0.29309  0.50848  1.0000
  H   H249      1.0  0.03982  0.31585  0.54570  1.0000
  H   H250      1.0  0.03848  0.29065  0.51188  1.0000
  C   C359      1.0  0.00129  0.30166  0.35821  1.0000
  H   H251      1.0  0.99817  0.30976  0.40611  1.0000
  C   C360      1.0  0.76288  0.71655  0.33742  1.0000
  C   C361      1.0  0.76113  0.73023  0.40538  1.0000
  C   C362      1.0  0.75044  0.74265  0.38538  1.0000
  H   H252      1.0  0.74927  0.75238  0.43459  1.0000
  C   C363      1.0  0.77005  0.73261  0.49856  1.0000
  H   H253      1.0  0.77912  0.72372  0.50959  1.0000
  H   H254      1.0  0.75633  0.72630  0.54685  1.0000
  H   H255      1.0  0.78154  0.75017  0.51296  1.0000
  C   C364      1.0  0.77065  0.70196  0.35937  1.0000
  H   H256      1.0  0.76252  0.69075  0.40727  1.0000
  C   C365      1.0  0.35576  0.04864  0.33659  1.0000
  C   C366      1.0  0.34200  0.03319  0.40441  1.0000
  C   C367      1.0  0.32959  0.01009  0.38425  1.0000
  H   H257      1.0  0.31982  0.99916  0.43338  1.0000
  C   C368      1.0  0.33954  0.03970  0.49763  1.0000
  H   H258      1.0  0.34842  0.05765  0.50877  1.0000
  H   H259      1.0  0.34579  0.03226  0.54589  1.0000
  H   H260      1.0  0.32196  0.03363  0.51196  1.0000
  C   C369      1.0  0.37033  0.07098  0.35866  1.0000
  H   H261      1.0  0.38149  0.07405  0.40665  1.0000
  C   C370      1.0  0.07120  0.74032  0.33565  1.0000
  C   C371      1.0  0.05579  0.73861  0.40373  1.0000
  C   C372      1.0  0.03268  0.72791  0.38392  1.0000
  H   H262      1.0  0.02178  0.72675  0.43321  1.0000
  C   C373      1.0  0.06236  0.74757  0.49688  1.0000
  H   H263      1.0  0.08032  0.75664  0.50777  1.0000
  H   H264      1.0  0.05496  0.73387  0.54521  1.0000
  H   H265      1.0  0.05629  0.75906  0.51134  1.0000
  C   C374      1.0  0.09356  0.74810  0.35746  1.0000
  H   H266      1.0  0.09665  0.73998  0.40527  1.0000
  C   C375      1.0  0.33199  0.33321  0.33678  1.0000
  C   C376      1.0  0.33365  0.31951  0.40484  1.0000
  C   C377      1.0  0.34435  0.30708  0.38501  1.0000
  H   H267      1.0  0.34546  0.29734  0.43430  1.0000
  C   C378      1.0  0.32463  0.31713  0.49798  1.0000
  H   H268      1.0  0.31557  0.32603  0.50888  1.0000
  H   H269      1.0  0.33830  0.32341  0.54632  1.0000
  H   H270      1.0  0.31312  0.29956  0.51244  1.0000
  C   C379      1.0  0.32421  0.34781  0.35854  1.0000
  H   H271      1.0  0.33229  0.35900  0.40644  1.0000
  C   C380      1.0  0.73909  0.00110  0.33693  1.0000
  C   C381      1.0  0.75275  0.01649  0.40491  1.0000
  C   C382      1.0  0.76519  0.03961  0.38494  1.0000
  H   H272      1.0  0.77491  0.05049  0.43416  1.0000
  C   C383      1.0  0.75509  0.00989  0.49810  1.0000
  H   H273      1.0  0.74620  0.99193  0.50911  1.0000
  H   H274      1.0  0.74878  0.01729  0.54638  1.0000
  H   H275      1.0  0.77265  0.01596  0.51253  1.0000
  C   C384      1.0  0.72449  0.97873  0.35885  1.0000
  H   H276      1.0  0.71328  0.97563  0.40679  1.0000
