data_image0
_chemical_formula_structural       C3NC3NC5NC5NC20H18NHNHNHNHC3NC3NC5NC5NC20H18NHNHNHNHC3NC3NC5NC5NC20H18NHNHNHNHC5H3CH3CHC5H3CH3CHC5H3CH3CHC5H3CH3CHC5H3CH3CHC5H3CH3CHC8H8C8H8C8H8C3HC4H2CH4CH2C3HC4H2CH4CH2C3HC4H2CH4CH2C3HC4H2CH4CH2C3HC4H2CH4CH2C3HC4H2CH4CH2
_chemical_formula_sum              "C228 N24 H186"
_cell_length_a       58.0076
_cell_length_b       58.0076
_cell_length_c       15.0222
_cell_angle_alpha    89.9326
_cell_angle_beta     90.0674
_cell_angle_gamma    120

_space_group_name_H-M_alt    "P 1"
_space_group_IT_number       1

loop_
  _space_group_symop_operation_xyz
  'x, y, z'

loop_
  _atom_site_type_symbol
  _atom_site_label
  _atom_site_symmetry_multiplicity
  _atom_site_fract_x
  _atom_site_fract_y
  _atom_site_fract_z
  _atom_site_occupancy
  C   C1        1.0  0.01623  0.47061  0.29635  1.0000
  C   C2        1.0  0.04360  0.48619  0.29862  1.0000
  C   C3        1.0  0.05015  0.51287  0.30012  1.0000
  N   N1        1.0  0.02661  0.51249  0.29838  1.0000
  C   C4        1.0  0.00545  0.48743  0.29708  1.0000
  C   C5        1.0  0.97780  0.47882  0.29784  1.0000
  C   C6        1.0  0.96684  0.49589  0.29979  1.0000
  N   N2        1.0  0.98008  0.52277  0.29896  1.0000
  C   C7        1.0  0.96335  0.53259  0.30289  1.0000
  C   C8        1.0  0.93766  0.51056  0.30610  1.0000
  C   C9        1.0  0.93981  0.48793  0.30380  1.0000
  C   C10       1.0  0.97008  0.55972  0.30374  1.0000
  C   C11       1.0  0.99640  0.58184  0.29999  1.0000
  N   N3        1.0  0.01993  0.58222  0.29833  1.0000
  C   C12       1.0  0.04109  0.60728  0.29714  1.0000
  C   C13       1.0  0.03032  0.62410  0.29600  1.0000
  C   C14       1.0  0.00295  0.60852  0.29828  1.0000
  C   C15       1.0  0.06874  0.61589  0.29830  1.0000
  C   C16       1.0  0.07971  0.59883  0.30023  1.0000
  N   N4        1.0  0.06647  0.57195  0.29924  1.0000
  C   C17       1.0  0.08320  0.56212  0.30310  1.0000
  C   C18       1.0  0.10889  0.58416  0.30645  1.0000
  C   C19       1.0  0.10674  0.60679  0.30432  1.0000
  C   C20       1.0  0.07647  0.53500  0.30386  1.0000
  C   C21       1.0  0.09773  0.52962  0.31287  1.0000
  C   C22       1.0  0.11064  0.52702  0.23709  1.0000
  C   C23       1.0  0.13215  0.52246  0.24705  1.0000
  C   C24       1.0  0.14101  0.52039  0.33253  1.0000
  C   C25       1.0  0.08692  0.64377  0.29904  1.0000
  C   C26       1.0  0.09740  0.65763  0.21840  1.0000
  C   C27       1.0  0.11609  0.68501  0.21938  1.0000
  C   C28       1.0  0.12457  0.69894  0.30088  1.0000
  C   C29       1.0  0.94884  0.56510  0.31288  1.0000
  C   C30       1.0  0.90577  0.57461  0.33280  1.0000
  C   C31       1.0  0.91448  0.57245  0.24727  1.0000
  C   C32       1.0  0.93589  0.56776  0.23718  1.0000
  C   C33       1.0  0.95962  0.45095  0.29850  1.0000
  C   C34       1.0  0.94905  0.43716  0.21783  1.0000
  C   C35       1.0  0.93027  0.40980  0.21875  1.0000
  C   C36       1.0  0.92178  0.39583  0.30023  1.0000
  H   H1        1.0  0.92246  0.40017  0.15992  1.0000
  H   H2        1.0  0.95462  0.44700  0.15820  1.0000
  H   H3        1.0  0.00612  0.45026  0.29571  1.0000
  H   H4        1.0  0.05639  0.47888  0.29945  1.0000
  H   H5        1.0  0.02509  0.52821  0.30029  1.0000
  H   H6        1.0  0.02146  0.56651  0.30112  1.0000
  H   H7        1.0  0.92407  0.46891  0.30595  1.0000
  H   H8        1.0  0.92009  0.51061  0.30946  1.0000
  H   H9        1.0  0.94177  0.56603  0.17453  1.0000
  H   H10       1.0  0.90504  0.57398  0.19190  1.0000
  H   H11       1.0  0.99016  0.61584  0.29908  1.0000
  H   H12       1.0  0.04042  0.64445  0.29569  1.0000
  H   H13       1.0  0.12646  0.58410  0.30983  1.0000
  H   H14       1.0  0.12248  0.62580  0.30660  1.0000
  H   H15       1.0  0.09179  0.64783  0.15874  1.0000
  H   H16       1.0  0.12379  0.69471  0.16055  1.0000
  H   H17       1.0  0.14160  0.52104  0.19163  1.0000
  H   H18       1.0  0.10469  0.52875  0.17447  1.0000
  N   N5        1.0  0.14441  0.72610  0.30519  1.0000
  H   H19       1.0  0.13907  0.73685  0.26417  1.0000
  N   N6        1.0  0.16361  0.51737  0.33928  1.0000
  H   H20       1.0  0.17808  0.53332  0.37416  1.0000
  N   N7        1.0  0.90179  0.36872  0.30451  1.0000
  H   H21       1.0  0.90695  0.35790  0.26332  1.0000
  N   N8        1.0  0.88331  0.57787  0.33969  1.0000
  H   H22       1.0  0.86880  0.56201  0.37476  1.0000
  C   C37       1.0  0.60088  0.61860  0.29565  1.0000
  C   C38       1.0  0.58530  0.63039  0.29802  1.0000
  C   C39       1.0  0.55862  0.61025  0.30026  1.0000
  N   N9        1.0  0.55901  0.58710  0.29872  1.0000
  C   C40       1.0  0.58406  0.59101  0.29719  1.0000
  C   C41       1.0  0.59268  0.57197  0.29859  1.0000
  C   C42       1.0  0.57562  0.54394  0.30083  1.0000
  N   N10       1.0  0.54874  0.53030  0.29978  1.0000
  C   C43       1.0  0.53892  0.50374  0.30394  1.0000
  C   C44       1.0  0.56095  0.50009  0.30751  1.0000
  C   C45       1.0  0.58358  0.52488  0.30529  1.0000
  C   C46       1.0  0.51179  0.48335  0.30465  1.0000
  C   C47       1.0  0.48967  0.48754  0.30071  1.0000
  N   N11       1.0  0.48928  0.51069  0.29910  1.0000
  C   C48       1.0  0.46422  0.50679  0.29779  1.0000
  C   C49       1.0  0.44740  0.47919  0.29664  1.0000
  C   C50       1.0  0.46298  0.46740  0.29885  1.0000
  C   C51       1.0  0.45561  0.52583  0.29898  1.0000
  C   C52       1.0  0.47268  0.55385  0.30110  1.0000
  N   N12       1.0  0.49955  0.56750  0.29993  1.0000
  C   C53       1.0  0.50938  0.59405  0.30402  1.0000
  C   C54       1.0  0.48735  0.59770  0.30768  1.0000
  C   C55       1.0  0.46472  0.57292  0.30554  1.0000
  C   C56       1.0  0.53651  0.61445  0.30454  1.0000
  C   C57       1.0  0.54189  0.64108  0.31359  1.0000
  C   C58       1.0  0.54442  0.65662  0.23785  1.0000
  C   C59       1.0  0.54898  0.68268  0.24787  1.0000
  C   C60       1.0  0.55111  0.69356  0.33338  1.0000
  C   C61       1.0  0.42774  0.51613  0.29981  1.0000
  C   C62       1.0  0.41385  0.51279  0.21921  1.0000
  C   C63       1.0  0.38648  0.50411  0.22028  1.0000
  C   C64       1.0  0.37257  0.49862  0.30183  1.0000
  C   C65       1.0  0.50640  0.45671  0.31373  1.0000
  C   C66       1.0  0.49688  0.40411  0.33357  1.0000
  C   C67       1.0  0.49905  0.41505  0.24805  1.0000
  C   C68       1.0  0.50376  0.44116  0.23801  1.0000
  C   C69       1.0  0.62055  0.58166  0.29932  1.0000
  C   C70       1.0  0.63435  0.58489  0.21870  1.0000
  C   C71       1.0  0.66171  0.59347  0.21971  1.0000
  C   C72       1.0  0.67567  0.59893  0.30121  1.0000
  H   H23       1.0  0.67135  0.59531  0.16091  1.0000
  H   H24       1.0  0.62452  0.58065  0.15904  1.0000
  H   H25       1.0  0.62123  0.62884  0.29517  1.0000
  H   H26       1.0  0.59262  0.65049  0.29885  1.0000
  H   H27       1.0  0.54331  0.56987  0.30210  1.0000
  H   H28       1.0  0.50500  0.52793  0.30173  1.0000
  H   H29       1.0  0.60259  0.52814  0.30756  1.0000
  H   H30       1.0  0.56090  0.48247  0.31107  1.0000
  H   H31       1.0  0.50552  0.44883  0.17537  1.0000
  H   H32       1.0  0.49756  0.40413  0.19267  1.0000
  H   H33       1.0  0.45567  0.44731  0.29970  1.0000
  H   H34       1.0  0.42706  0.46895  0.29617  1.0000
  H   H35       1.0  0.48741  0.61532  0.31119  1.0000
  H   H36       1.0  0.44570  0.56965  0.30785  1.0000
  H   H37       1.0  0.42364  0.51701  0.15952  1.0000
  H   H38       1.0  0.37676  0.50215  0.16148  1.0000
  H   H39       1.0  0.55035  0.69357  0.19249  1.0000
  H   H40       1.0  0.54264  0.64897  0.17523  1.0000
  N   N13       1.0  0.34541  0.49131  0.30621  1.0000
  H   H41       1.0  0.33464  0.47525  0.26519  1.0000
  N   N14       1.0  0.55413  0.71918  0.34021  1.0000
  H   H42       1.0  0.53820  0.71767  0.37522  1.0000
  N   N15       1.0  0.70278  0.60603  0.30559  1.0000
  H   H43       1.0  0.71361  0.62203  0.26436  1.0000
  N   N16       1.0  0.49362  0.37839  0.34041  1.0000
  H   H44       1.0  0.50948  0.37972  0.37550  1.0000
  C   C73       1.0  0.45289  0.05525  0.29788  1.0000
  C   C74       1.0  0.44110  0.02788  0.30002  1.0000
  C   C75       1.0  0.46124  0.02133  0.30165  1.0000
  N   N17       1.0  0.48439  0.04487  0.30001  1.0000
  C   C76       1.0  0.48049  0.06603  0.29872  1.0000
  C   C77       1.0  0.49953  0.09368  0.29958  1.0000
  C   C78       1.0  0.52756  0.10465  0.30141  1.0000
  N   N18       1.0  0.54120  0.09141  0.30059  1.0000
  C   C79       1.0  0.56776  0.10815  0.30429  1.0000
  C   C80       1.0  0.57142  0.13384  0.30735  1.0000
  C   C81       1.0  0.54663  0.13168  0.30528  1.0000
  C   C82       1.0  0.58816  0.10142  0.30513  1.0000
  C   C83       1.0  0.58397  0.07510  0.30174  1.0000
  N   N19       1.0  0.56082  0.05156  0.30007  1.0000
  C   C84       1.0  0.56472  0.03040  0.29910  1.0000
  C   C85       1.0  0.59231  0.04118  0.29850  1.0000
  C   C86       1.0  0.60410  0.06855  0.30055  1.0000
  C   C87       1.0  0.54568  0.00275  0.30000  1.0000
  C   C88       1.0  0.51765  0.99179  0.30182  1.0000
  N   N20       1.0  0.50401  0.00502  0.30091  1.0000
  C   C89       1.0  0.47745  0.98829  0.30460  1.0000
  C   C90       1.0  0.47380  0.96260  0.30775  1.0000
  C   C91       1.0  0.49858  0.96475  0.30573  1.0000
  C   C92       1.0  0.45705  0.99502  0.30531  1.0000
  C   C93       1.0  0.43042  0.97375  0.31409  1.0000
  C   C94       1.0  0.41492  0.96088  0.23817  1.0000
  C   C95       1.0  0.38885  0.93936  0.24788  1.0000
  C   C96       1.0  0.37790  0.93048  0.33327  1.0000
  C   C97       1.0  0.55537  0.98457  0.30082  1.0000
  C   C98       1.0  0.55876  0.97413  0.22020  1.0000
  C   C99       1.0  0.56746  0.95544  0.22123  1.0000
  C   C100      1.0  0.57289  0.94692  0.30278  1.0000
  C   C101      1.0  0.61480  0.12267  0.31403  1.0000
  C   C102      1.0  0.66741  0.16574  0.33340  1.0000
  C   C103      1.0  0.65644  0.15696  0.24798  1.0000
  C   C104      1.0  0.63031  0.13555  0.23817  1.0000
  C   C105      1.0  0.48984  0.11187  0.30029  1.0000
  C   C106      1.0  0.48655  0.12243  0.21965  1.0000
  C   C107      1.0  0.47799  0.14122  0.22064  1.0000
  C   C108      1.0  0.47257  0.14971  0.30214  1.0000
  H   H45       1.0  0.47610  0.14902  0.16182  1.0000
  H   H46       1.0  0.49077  0.11686  0.16000  1.0000
  H   H47       1.0  0.44265  0.06536  0.29727  1.0000
  H   H48       1.0  0.42101  0.01509  0.30084  1.0000
  H   H49       1.0  0.50164  0.04640  0.30226  1.0000
  H   H50       1.0  0.54357  0.05004  0.30175  1.0000
  H   H51       1.0  0.54337  0.14743  0.30729  1.0000
  H   H52       1.0  0.58904  0.15141  0.31053  1.0000
  H   H53       1.0  0.62262  0.12961  0.17559  1.0000
  H   H54       1.0  0.66733  0.16636  0.19250  1.0000
  H   H55       1.0  0.62420  0.08133  0.30151  1.0000
  H   H56       1.0  0.60256  0.03108  0.29828  1.0000
  H   H57       1.0  0.45617  0.94503  0.31092  1.0000
  H   H58       1.0  0.50185  0.94900  0.30776  1.0000
  H   H59       1.0  0.55458  0.97975  0.16050  1.0000
  H   H60       1.0  0.56944  0.94775  0.16242  1.0000
  H   H61       1.0  0.37799  0.92995  0.19236  1.0000
  H   H62       1.0  0.42262  0.96685  0.17563  1.0000
  N   N21       1.0  0.58021  0.92707  0.30712  1.0000
  H   H63       1.0  0.59628  0.93240  0.26618  1.0000
  N   N22       1.0  0.35228  0.90788  0.33977  1.0000
  H   H64       1.0  0.35374  0.89339  0.37466  1.0000
  N   N23       1.0  0.46546  0.16971  0.30648  1.0000
  H   H65       1.0  0.44945  0.16455  0.26532  1.0000
  N   N24       1.0  0.69314  0.18820  0.34001  1.0000
  H   H66       1.0  0.69183  0.20274  0.37499  1.0000
  C   C109      1.0  0.31272  0.50807  0.30169  1.0000
  C   C110      1.0  0.30680  0.52840  0.28197  1.0000
  C   C111      1.0  0.28132  0.52523  0.29739  1.0000
  C   C112      1.0  0.21741  0.48920  0.27714  1.0000
  C   C113      1.0  0.19232  0.48692  0.28758  1.0000
  H   H67       1.0  0.22318  0.48698  0.21480  1.0000
  H   H68       1.0  0.18050  0.48325  0.23274  1.0000
  H   H69       1.0  0.32150  0.54597  0.25597  1.0000
  C   C114      1.0  0.27647  0.54757  0.27670  1.0000
  H   H70       1.0  0.29423  0.56521  0.25200  1.0000
  H   H71       1.0  0.26992  0.55329  0.33657  1.0000
  H   H72       1.0  0.26107  0.54142  0.22581  1.0000
  C   C115      1.0  0.34015  0.51324  0.28372  1.0000
  H   H73       1.0  0.34444  0.51821  0.21309  1.0000
  C   C116      1.0  0.56344  0.87762  0.30243  1.0000
  C   C117      1.0  0.54311  0.85139  0.28267  1.0000
  C   C118      1.0  0.54628  0.82907  0.29809  1.0000
  C   C119      1.0  0.58229  0.80119  0.27789  1.0000
  C   C120      1.0  0.58458  0.77838  0.28833  1.0000
  H   H74       1.0  0.58451  0.80921  0.21554  1.0000
  H   H75       1.0  0.58825  0.77025  0.23350  1.0000
  H   H76       1.0  0.52555  0.84855  0.25664  1.0000
  C   C121      1.0  0.52394  0.80189  0.27735  1.0000
  H   H77       1.0  0.50630  0.80203  0.25264  1.0000
  H   H78       1.0  0.51820  0.78958  0.33722  1.0000
  H   H79       1.0  0.53009  0.79267  0.22648  1.0000
  C   C122      1.0  0.55828  0.89989  0.28448  1.0000
  H   H80       1.0  0.55335  0.89929  0.21383  1.0000
  C   C123      1.0  0.19386  0.75881  0.30070  1.0000
  C   C124      1.0  0.22010  0.76474  0.28105  1.0000
  C   C125      1.0  0.24241  0.79021  0.29661  1.0000
  C   C126      1.0  0.27031  0.85413  0.27681  1.0000
  C   C127      1.0  0.29311  0.87921  0.28749  1.0000
  H   H81       1.0  0.26233  0.84841  0.21439  1.0000
  H   H82       1.0  0.30128  0.89107  0.23275  1.0000
  H   H83       1.0  0.22296  0.75004  0.25499  1.0000
  C   C128      1.0  0.26959  0.79508  0.27600  1.0000
  H   H84       1.0  0.26947  0.77732  0.25123  1.0000
  H   H85       1.0  0.28188  0.80159  0.33593  1.0000
  H   H86       1.0  0.27884  0.81050  0.22521  1.0000
  C   C129      1.0  0.17160  0.73138  0.28265  1.0000
  H   H87       1.0  0.17223  0.72711  0.21200  1.0000
  C   C130      1.0  0.73513  0.58884  0.30149  1.0000
  C   C131      1.0  0.74079  0.56833  0.28210  1.0000
  C   C132      1.0  0.76618  0.57127  0.29762  1.0000
  C   C133      1.0  0.83011  0.60681  0.27719  1.0000
  C   C134      1.0  0.85508  0.60881  0.28767  1.0000
  H   H88       1.0  0.82437  0.60908  0.21481  1.0000
  H   H89       1.0  0.86685  0.61234  0.23283  1.0000
  H   H90       1.0  0.72597  0.55082  0.25625  1.0000
  C   C135      1.0  0.77076  0.54875  0.27725  1.0000
  H   H91       1.0  0.75289  0.53119  0.25270  1.0000
  H   H92       1.0  0.77724  0.54296  0.33724  1.0000
  H   H93       1.0  0.78612  0.55474  0.22638  1.0000
  C   C136      1.0  0.70778  0.58392  0.28343  1.0000
  H   H94       1.0  0.70343  0.57893  0.21284  1.0000
  C   C137      1.0  0.48265  0.21925  0.30221  1.0000
  C   C138      1.0  0.50315  0.24543  0.28278  1.0000
  C   C139      1.0  0.50022  0.26788  0.29829  1.0000
  C   C140      1.0  0.46469  0.29629  0.27787  1.0000
  C   C141      1.0  0.46268  0.31925  0.28835  1.0000
  H   H95       1.0  0.46242  0.28831  0.21549  1.0000
  H   H96       1.0  0.45915  0.32752  0.23351  1.0000
  H   H97       1.0  0.52067  0.24814  0.25692  1.0000
  C   C142      1.0  0.52274  0.29499  0.27789  1.0000
  H   H98       1.0  0.54030  0.29469  0.25333  1.0000
  H   H99       1.0  0.52854  0.30723  0.33787  1.0000
  H   H100      1.0  0.51675  0.30438  0.22701  1.0000
  C   C143      1.0  0.48757  0.19683  0.28418  1.0000
  H   H101      1.0  0.49253  0.19748  0.21358  1.0000
  C   C144      1.0  0.85225  0.33635  0.30041  1.0000
  C   C145      1.0  0.82607  0.33067  0.28107  1.0000
  C   C146      1.0  0.80363  0.30529  0.29677  1.0000
  C   C147      1.0  0.77519  0.24135  0.27682  1.0000
  C   C148      1.0  0.75224  0.21639  0.28755  1.0000
  H   H102      1.0  0.78313  0.24705  0.21437  1.0000
  H   H103      1.0  0.74393  0.20458  0.23281  1.0000
  H   H104      1.0  0.82334  0.34548  0.25516  1.0000
  C   C149      1.0  0.77651  0.30070  0.27648  1.0000
  H   H105      1.0  0.77679  0.31856  0.25183  1.0000
  H   H106      1.0  0.76430  0.29426  0.33653  1.0000
  H   H107      1.0  0.76709  0.28532  0.22570  1.0000
  C   C150      1.0  0.87466  0.36369  0.28225  1.0000
  H   H108      1.0  0.87400  0.36802  0.21163  1.0000
  C   C151      1.0  0.12807  0.52298  0.40827  1.0000
  C   C152      1.0  0.10653  0.52746  0.39856  1.0000
  C   C153      1.0  0.11368  0.68518  0.38119  1.0000
  C   C154      1.0  0.09506  0.65777  0.38046  1.0000
  C   C155      1.0  0.94017  0.56733  0.39861  1.0000
  C   C156      1.0  0.91872  0.57193  0.40847  1.0000
  C   C157      1.0  0.95149  0.43689  0.37987  1.0000
  C   C158      1.0  0.93280  0.40950  0.38054  1.0000
  H   H109      1.0  0.92668  0.39971  0.44008  1.0000
  H   H110      1.0  0.95882  0.44657  0.43905  1.0000
  H   H111      1.0  0.94913  0.56520  0.45431  1.0000
  H   H112      1.0  0.91229  0.57288  0.47097  1.0000
  H   H113      1.0  0.08778  0.64804  0.43962  1.0000
  H   H114      1.0  0.11977  0.69495  0.44075  1.0000
  H   H115      1.0  0.09760  0.52955  0.45431  1.0000
  H   H116      1.0  0.13461  0.52211  0.47074  1.0000
  C   C159      1.0  0.54859  0.67800  0.40909  1.0000
  C   C160      1.0  0.54414  0.65200  0.39930  1.0000
  C   C161      1.0  0.38634  0.50141  0.38208  1.0000
  C   C162      1.0  0.41376  0.51023  0.38127  1.0000
  C   C163      1.0  0.50416  0.44575  0.39945  1.0000
  C   C164      1.0  0.49955  0.41969  0.40927  1.0000
  C   C165      1.0  0.63460  0.58757  0.38072  1.0000
  C   C166      1.0  0.66198  0.59625  0.38148  1.0000
  H   H117      1.0  0.67177  0.59991  0.44105  1.0000
  H   H118      1.0  0.62491  0.58521  0.43987  1.0000
  H   H119      1.0  0.50626  0.45679  0.45517  1.0000
  H   H120      1.0  0.49857  0.41225  0.47176  1.0000
  H   H121      1.0  0.42350  0.51264  0.44040  1.0000
  H   H122      1.0  0.37659  0.49774  0.44167  1.0000
  H   H123      1.0  0.54208  0.64095  0.45502  1.0000
  H   H124      1.0  0.54952  0.68539  0.47157  1.0000
  C   C167      1.0  0.39342  0.94337  0.40915  1.0000
  C   C168      1.0  0.41944  0.96492  0.39967  1.0000
  C   C169      1.0  0.57003  0.95779  0.38306  1.0000
  C   C170      1.0  0.56123  0.97641  0.38227  1.0000
  C   C171      1.0  0.62579  0.13142  0.39965  1.0000
  C   C172      1.0  0.65187  0.15286  0.40924  1.0000
  C   C173      1.0  0.48399  0.12000  0.38170  1.0000
  C   C174      1.0  0.47531  0.13871  0.38243  1.0000
  H   H125      1.0  0.47167  0.14481  0.44199  1.0000
  H   H126      1.0  0.48638  0.11267  0.44087  1.0000
  H   H127      1.0  0.61478  0.12251  0.45546  1.0000
  H   H128      1.0  0.65933  0.15935  0.47166  1.0000
  H   H129      1.0  0.55877  0.98365  0.44142  1.0000
  H   H130      1.0  0.57368  0.95166  0.44264  1.0000
  H   H131      1.0  0.43045  0.97382  0.45552  1.0000
  H   H132      1.0  0.38598  0.93682  0.47155  1.0000
  C   C175      1.0  0.26108  0.50070  0.33349  1.0000
  C   C176      1.0  0.26684  0.48033  0.35356  1.0000
  C   C177      1.0  0.29235  0.48403  0.33833  1.0000
  H   H133      1.0  0.29578  0.46888  0.35437  1.0000
  C   C178      1.0  0.23497  0.49594  0.35021  1.0000
  C   C179      1.0  0.18400  0.49081  0.37161  1.0000
  C   C180      1.0  0.20124  0.49671  0.44523  1.0000
  C   C181      1.0  0.22679  0.49950  0.43595  1.0000
  H   H134      1.0  0.19552  0.50023  0.50577  1.0000
  H   H135      1.0  0.25249  0.46260  0.37976  1.0000
  C   C182      1.0  0.24478  0.50711  0.51458  1.0000
  H   H136      1.0  0.26296  0.52595  0.50176  1.0000
  H   H137      1.0  0.25000  0.49178  0.52766  1.0000
  H   H138      1.0  0.23570  0.50952  0.57489  1.0000
  H   H139      1.0  0.35377  0.53085  0.32248  1.0000
  C   C183      1.0  0.15910  0.49202  0.37922  1.0000
  H   H140      1.0  0.15304  0.49070  0.44886  1.0000
  H   H141      1.0  0.14307  0.47501  0.34416  1.0000
  C   C184      1.0  0.57080  0.83333  0.33423  1.0000
  C   C185      1.0  0.59117  0.85944  0.35434  1.0000
  C   C186      1.0  0.58748  0.88127  0.33912  1.0000
  H   H142      1.0  0.60263  0.89983  0.35519  1.0000
  C   C187      1.0  0.57555  0.81196  0.35096  1.0000
  C   C188      1.0  0.58070  0.76612  0.37237  1.0000
  C   C189      1.0  0.57479  0.77741  0.44598  1.0000
  C   C190      1.0  0.57200  0.80018  0.43669  1.0000
  H   H143      1.0  0.57128  0.76814  0.50653  1.0000
  H   H144      1.0  0.60889  0.86280  0.38057  1.0000
  C   C191      1.0  0.56438  0.81050  0.51532  1.0000
  H   H145      1.0  0.54554  0.80985  0.50249  1.0000
  H   H146      1.0  0.57971  0.83105  0.52840  1.0000
  H   H147      1.0  0.56197  0.79898  0.57564  1.0000
  H   H148      1.0  0.54066  0.89588  0.32317  1.0000
  C   C192      1.0  0.57950  0.74001  0.38000  1.0000
  H   H149      1.0  0.58086  0.73525  0.44964  1.0000
  H   H150      1.0  0.59649  0.74100  0.34485  1.0000
  C   C193      1.0  0.23812  0.81043  0.33280  1.0000
  C   C194      1.0  0.21200  0.80466  0.35278  1.0000
  C   C195      1.0  0.19018  0.77915  0.33741  1.0000
  H   H151      1.0  0.17161  0.77572  0.35342  1.0000
  C   C196      1.0  0.25948  0.83652  0.34975  1.0000
  C   C197      1.0  0.30532  0.88749  0.37162  1.0000
  C   C198      1.0  0.29397  0.87020  0.44509  1.0000
  C   C199      1.0  0.27121  0.84465  0.43557  1.0000
  H   H152      1.0  0.30320  0.87587  0.50572  1.0000
  H   H153      1.0  0.20863  0.81900  0.37905  1.0000
  C   C200      1.0  0.26083  0.82661  0.51407  1.0000
  H   H154      1.0  0.26148  0.80843  0.50116  1.0000
  H   H155      1.0  0.24028  0.82138  0.52703  1.0000
  H   H156      1.0  0.27231  0.83565  0.57449  1.0000
  H   H157      1.0  0.17561  0.71775  0.32135  1.0000
  C   C201      1.0  0.33142  0.91238  0.37949  1.0000
  H   H158      1.0  0.33615  0.91841  0.44919  1.0000
  H   H159      1.0  0.33047  0.92843  0.34443  1.0000
  C   C202      1.0  0.78658  0.59573  0.33350  1.0000
  C   C203      1.0  0.78108  0.61628  0.35326  1.0000
  C   C204      1.0  0.75566  0.61282  0.33792  1.0000
  H   H160      1.0  0.75241  0.62809  0.35372  1.0000
  C   C205      1.0  0.81261  0.60025  0.35028  1.0000
  C   C206      1.0  0.86337  0.60482  0.37175  1.0000
  C   C207      1.0  0.84620  0.59911  0.44539  1.0000
  C   C208      1.0  0.82075  0.59660  0.43606  1.0000
  H   H161      1.0  0.85187  0.59552  0.50598  1.0000
  H   H162      1.0  0.79555  0.63396  0.37930  1.0000
  C   C209      1.0  0.80283  0.58917  0.51472  1.0000
  H   H163      1.0  0.78453  0.57043  0.50202  1.0000
  H   H164      1.0  0.79782  0.60465  0.52762  1.0000
  H   H165      1.0  0.81186  0.58667  0.57509  1.0000
  H   H166      1.0  0.69407  0.56639  0.32235  1.0000
  C   C210      1.0  0.88811  0.60333  0.37944  1.0000
  H   H167      1.0  0.89419  0.60460  0.44908  1.0000
  H   H168      1.0  0.90422  0.62024  0.34429  1.0000
  C   C211      1.0  0.47577  0.26380  0.33419  1.0000
  C   C212      1.0  0.45522  0.23774  0.35398  1.0000
  C   C213      1.0  0.45867  0.21578  0.33867  1.0000
  H   H169      1.0  0.44340  0.19726  0.35450  1.0000
  C   C214      1.0  0.47125  0.28531  0.35096  1.0000
  C   C215      1.0  0.46667  0.33146  0.37243  1.0000
  C   C216      1.0  0.47238  0.31997  0.44606  1.0000
  C   C217      1.0  0.47490  0.29704  0.43675  1.0000
  H   H170      1.0  0.47597  0.32920  0.50665  1.0000
  H   H171      1.0  0.43753  0.23452  0.38004  1.0000
  C   C218      1.0  0.48232  0.28650  0.51540  1.0000
  H   H172      1.0  0.50107  0.28695  0.50271  1.0000
  H   H173      1.0  0.46685  0.26600  0.52831  1.0000
  H   H174      1.0  0.48483  0.29800  0.57577  1.0000
  H   H175      1.0  0.50511  0.20064  0.32305  1.0000
  C   C219      1.0  0.46816  0.35770  0.38012  1.0000
  H   H176      1.0  0.46688  0.36246  0.44977  1.0000
  H   H177      1.0  0.45125  0.35692  0.34494  1.0000
  C   C220      1.0  0.80772  0.28491  0.33275  1.0000
  C   C221      1.0  0.83380  0.29043  0.35242  1.0000
  C   C222      1.0  0.85574  0.31584  0.33693  1.0000
  H   H178      1.0  0.87427  0.31910  0.35270  1.0000
  C   C223      1.0  0.78623  0.25890  0.34976  1.0000
  C   C224      1.0  0.74008  0.20816  0.37173  1.0000
  C   C225      1.0  0.75163  0.22538  0.44522  1.0000
  C   C226      1.0  0.77455  0.25082  0.43565  1.0000
  H   H179      1.0  0.74244  0.21975  0.50588  1.0000
  H   H180      1.0  0.83703  0.27597  0.37854  1.0000
  C   C227      1.0  0.78515  0.26879  0.51415  1.0000
  H   H181      1.0  0.78470  0.28709  0.50136  1.0000
  H   H182      1.0  0.80566  0.27381  0.52694  1.0000
  H   H183      1.0  0.77369  0.25980  0.57463  1.0000
  H   H184      1.0  0.87085  0.37742  0.32107  1.0000
  C   C228      1.0  0.71385  0.18343  0.37968  1.0000
  H   H185      1.0  0.70912  0.17739  0.44939  1.0000
  H   H186      1.0  0.71460  0.16729  0.34462  1.0000
