data_image0
_chemical_formula_structural       C3NC3NC5NC5NC20H18C4H4C3NC3NC5NC5NC20H18C4H4C3NC3NC5NC5NC20H18C4H4C2HC6H3NC2HC6H3NC2HC6H3NC2HC6H3NC2HC6H3NC2HC6H3NC8H8C8H8C8H8C2NC2NHCH3NC2NC2NHCH3NC2NC2NHCH3NC2NC2NHCH3NC2NC2NHCH3NC2NC2NHCH3N
_chemical_formula_sum              "C222 N36 H138"
_cell_length_a       58.0155
_cell_length_b       58.0154
_cell_length_c       15.0063
_cell_angle_alpha    90.0142
_cell_angle_beta     89.9858
_cell_angle_gamma    120

_space_group_name_H-M_alt    "P 1"
_space_group_IT_number       1

loop_
  _space_group_symop_operation_xyz
  'x, y, z'

loop_
  _atom_site_type_symbol
  _atom_site_label
  _atom_site_symmetry_multiplicity
  _atom_site_fract_x
  _atom_site_fract_y
  _atom_site_fract_z
  _atom_site_occupancy
  C   C1        1.0  0.00599  0.61247  0.31777  1.0000
  C   C2        1.0  0.03341  0.62761  0.31795  1.0000
  C   C3        1.0  0.04370  0.61037  0.31873  1.0000
  N   N1        1.0  0.02220  0.58552  0.32038  1.0000
  C   C4        1.0  0.99890  0.58563  0.31881  1.0000
  C   C5        1.0  0.97236  0.56386  0.31689  1.0000
  C   C6        1.0  0.96513  0.53659  0.31714  1.0000
  N   N2        1.0  0.98145  0.52627  0.31975  1.0000
  C   C7        1.0  0.96777  0.49939  0.31730  1.0000
  C   C8        1.0  0.94087  0.49196  0.31338  1.0000
  C   C9        1.0  0.93924  0.51489  0.31358  1.0000
  C   C10       1.0  0.97821  0.48187  0.31719  1.0000
  C   C11       1.0  0.00576  0.49000  0.31924  1.0000
  N   N3        1.0  0.02725  0.51486  0.32084  1.0000
  C   C12       1.0  0.05055  0.51474  0.31931  1.0000
  C   C13       1.0  0.04346  0.48790  0.31870  1.0000
  C   C14       1.0  0.01605  0.47275  0.31881  1.0000
  C   C15       1.0  0.07709  0.53651  0.31707  1.0000
  C   C16       1.0  0.08433  0.56378  0.31719  1.0000
  N   N4        1.0  0.06800  0.57410  0.31973  1.0000
  C   C17       1.0  0.08169  0.60098  0.31721  1.0000
  C   C18       1.0  0.10858  0.60840  0.31330  1.0000
  C   C19       1.0  0.11021  0.58547  0.31353  1.0000
  C   C20       1.0  0.07124  0.61850  0.31685  1.0000
  C   C21       1.0  0.08978  0.64622  0.30950  1.0000
  C   C22       1.0  0.12720  0.70149  0.29295  1.0000
  C   C23       1.0  0.11383  0.68603  0.21720  1.0000
  C   C24       1.0  0.09542  0.65870  0.22524  1.0000
  C   C25       1.0  0.09805  0.53061  0.30951  1.0000
  C   C26       1.0  0.14113  0.52056  0.29286  1.0000
  C   C27       1.0  0.12932  0.52472  0.21656  1.0000
  C   C28       1.0  0.10800  0.52960  0.22463  1.0000
  C   C29       1.0  0.95969  0.45415  0.30974  1.0000
  C   C30       1.0  0.95414  0.44168  0.22547  1.0000
  C   C31       1.0  0.93581  0.41432  0.21736  1.0000
  C   C32       1.0  0.92244  0.39883  0.29305  1.0000
  C   C33       1.0  0.95139  0.56974  0.30926  1.0000
  C   C34       1.0  0.94148  0.57075  0.22437  1.0000
  C   C35       1.0  0.90818  0.57958  0.29253  1.0000
  C   C36       1.0  0.92010  0.57554  0.21624  1.0000
  H   H1        1.0  0.91315  0.57577  0.15369  1.0000
  H   H2        1.0  0.94948  0.56760  0.16801  1.0000
  H   H3        1.0  0.99352  0.62015  0.31615  1.0000
  H   H4        1.0  0.04384  0.64795  0.31658  1.0000
  H   H5        1.0  0.02335  0.56957  0.32040  1.0000
  H   H6        1.0  0.02611  0.53080  0.32003  1.0000
  H   H7        1.0  0.92187  0.51534  0.31046  1.0000
  H   H8        1.0  0.92488  0.47311  0.31014  1.0000
  H   H9        1.0  0.96335  0.45243  0.16944  1.0000
  H   H10       1.0  0.93206  0.40592  0.15518  1.0000
  H   H11       1.0  0.00562  0.45242  0.31749  1.0000
  H   H12       1.0  0.05593  0.48021  0.31693  1.0000
  H   H13       1.0  0.12457  0.62725  0.30984  1.0000
  H   H14       1.0  0.12758  0.58502  0.31038  1.0000
  H   H15       1.0  0.10005  0.53280  0.16826  1.0000
  H   H16       1.0  0.13627  0.52446  0.15403  1.0000
  H   H17       1.0  0.08624  0.64795  0.16916  1.0000
  H   H18       1.0  0.11767  0.69443  0.15502  1.0000
  C   C37       1.0  0.16299  0.51709  0.28251  1.0000
  C   C38       1.0  0.90400  0.37205  0.28246  1.0000
  C   C39       1.0  0.88623  0.58290  0.28212  1.0000
  C   C40       1.0  0.14578  0.72824  0.28242  1.0000
  H   H19       1.0  0.17379  0.52394  0.22708  1.0000
  H   H20       1.0  0.90657  0.36210  0.23315  1.0000
  H   H21       1.0  0.87553  0.57611  0.22647  1.0000
  H   H22       1.0  0.14333  0.73823  0.23298  1.0000
  C   C41       1.0  0.46156  0.46760  0.31869  1.0000
  C   C42       1.0  0.44642  0.47987  0.31886  1.0000
  C   C43       1.0  0.46367  0.50740  0.31901  1.0000
  N   N5        1.0  0.48853  0.51077  0.32057  1.0000
  C   C44       1.0  0.48840  0.48735  0.31917  1.0000
  C   C45       1.0  0.51017  0.48258  0.31677  1.0000
  C   C46       1.0  0.53744  0.50261  0.31678  1.0000
  N   N6        1.0  0.54777  0.52926  0.31955  1.0000
  C   C47       1.0  0.57465  0.54245  0.31690  1.0000
  C   C48       1.0  0.58207  0.52298  0.31268  1.0000
  C   C49       1.0  0.55913  0.49842  0.31283  1.0000
  C   C50       1.0  0.59216  0.57041  0.31687  1.0000
  C   C51       1.0  0.58404  0.58983  0.31914  1.0000
  N   N7        1.0  0.55919  0.58647  0.32077  1.0000
  C   C52       1.0  0.55931  0.60989  0.31935  1.0000
  C   C53       1.0  0.58615  0.62964  0.31870  1.0000
  C   C54       1.0  0.60129  0.61736  0.31888  1.0000
  C   C55       1.0  0.53754  0.61466  0.31717  1.0000
  C   C56       1.0  0.51027  0.59463  0.31699  1.0000
  N   N8        1.0  0.49994  0.56798  0.31957  1.0000
  C   C57       1.0  0.47307  0.55479  0.31682  1.0000
  C   C58       1.0  0.46565  0.57426  0.31270  1.0000
  C   C59       1.0  0.48858  0.59882  0.31308  1.0000
  C   C60       1.0  0.45555  0.52683  0.31666  1.0000
  C   C61       1.0  0.42782  0.51763  0.30932  1.0000
  C   C62       1.0  0.37254  0.49975  0.29278  1.0000
  C   C63       1.0  0.38800  0.50180  0.21705  1.0000
  C   C64       1.0  0.41533  0.51073  0.22508  1.0000
  C   C65       1.0  0.54344  0.64152  0.30952  1.0000
  C   C66       1.0  0.55353  0.69466  0.29275  1.0000
  C   C67       1.0  0.54938  0.67866  0.21648  1.0000
  C   C68       1.0  0.54447  0.65245  0.22462  1.0000
  C   C69       1.0  0.61989  0.57961  0.30946  1.0000
  C   C70       1.0  0.63237  0.58654  0.22520  1.0000
  C   C71       1.0  0.65972  0.59554  0.21710  1.0000
  C   C72       1.0  0.67520  0.59763  0.29280  1.0000
  C   C73       1.0  0.50428  0.45573  0.30910  1.0000
  C   C74       1.0  0.50321  0.44478  0.22417  1.0000
  C   C75       1.0  0.49446  0.40268  0.29228  1.0000
  C   C76       1.0  0.49844  0.41862  0.21601  1.0000
  H   H23       1.0  0.49817  0.41143  0.15344  1.0000
  H   H24       1.0  0.50632  0.45591  0.16783  1.0000
  H   H25       1.0  0.45387  0.44745  0.31688  1.0000
  H   H26       1.0  0.42608  0.46997  0.31725  1.0000
  H   H27       1.0  0.50446  0.52785  0.31939  1.0000
  H   H28       1.0  0.54325  0.56939  0.32017  1.0000
  H   H29       1.0  0.55868  0.48060  0.30964  1.0000
  H   H30       1.0  0.60091  0.52583  0.30926  1.0000
  H   H31       1.0  0.62163  0.58501  0.16918  1.0000
  H   H32       1.0  0.66813  0.60021  0.15495  1.0000
  H   H33       1.0  0.62162  0.62726  0.31729  1.0000
  H   H34       1.0  0.59384  0.64979  0.31699  1.0000
  H   H35       1.0  0.44680  0.57141  0.30930  1.0000
  H   H36       1.0  0.48903  0.61664  0.31007  1.0000
  H   H37       1.0  0.54128  0.64129  0.16827  1.0000
  H   H38       1.0  0.54965  0.68586  0.15393  1.0000
  H   H39       1.0  0.42607  0.51227  0.16901  1.0000
  H   H40       1.0  0.37959  0.49718  0.15489  1.0000
  C   C77       1.0  0.55703  0.72000  0.28233  1.0000
  C   C78       1.0  0.70198  0.60595  0.28222  1.0000
  C   C79       1.0  0.49116  0.37741  0.28182  1.0000
  C   C80       1.0  0.34579  0.49155  0.28227  1.0000
  H   H41       1.0  0.55020  0.72394  0.22686  1.0000
  H   H42       1.0  0.71193  0.61848  0.23294  1.0000
  H   H43       1.0  0.49791  0.37350  0.22610  1.0000
  H   H44       1.0  0.33580  0.47912  0.23281  1.0000
  C   C81       1.0  0.60644  0.06805  0.31771  1.0000
  C   C82       1.0  0.59417  0.04064  0.31794  1.0000
  C   C83       1.0  0.56664  0.03035  0.31852  1.0000
  N   N9        1.0  0.56327  0.05185  0.32023  1.0000
  C   C84       1.0  0.58669  0.07514  0.31873  1.0000
  C   C85       1.0  0.59146  0.10169  0.31679  1.0000
  C   C86       1.0  0.57143  0.10893  0.31699  1.0000
  N   N10       1.0  0.54478  0.09260  0.31954  1.0000
  C   C87       1.0  0.53159  0.10629  0.31715  1.0000
  C   C88       1.0  0.55106  0.13318  0.31328  1.0000
  C   C89       1.0  0.57562  0.13481  0.31342  1.0000
  C   C90       1.0  0.50363  0.09585  0.31693  1.0000
  C   C91       1.0  0.48421  0.06830  0.31879  1.0000
  N   N11       1.0  0.48757  0.04681  0.32046  1.0000
  C   C92       1.0  0.46415  0.02351  0.31882  1.0000
  C   C93       1.0  0.44440  0.03060  0.31778  1.0000
  C   C94       1.0  0.45668  0.05801  0.31800  1.0000
  C   C95       1.0  0.45938  0.99696  0.31684  1.0000
  C   C96       1.0  0.47941  0.98973  0.31687  1.0000
  N   N12       1.0  0.50607  0.00606  0.31929  1.0000
  C   C97       1.0  0.51925  0.99237  0.31676  1.0000
  C   C98       1.0  0.49978  0.96547  0.31296  1.0000
  C   C99       1.0  0.47522  0.96384  0.31330  1.0000
  C   C100      1.0  0.54721  0.00281  0.31651  1.0000
  C   C101      1.0  0.55640  0.98427  0.30912  1.0000
  C   C102      1.0  0.57423  0.94683  0.29246  1.0000
  C   C103      1.0  0.57215  0.96021  0.21674  1.0000
  C   C104      1.0  0.56324  0.97864  0.22483  1.0000
  C   C105      1.0  0.43253  0.97600  0.30929  1.0000
  C   C106      1.0  0.37938  0.93294  0.29272  1.0000
  C   C107      1.0  0.39538  0.94471  0.21640  1.0000
  C   C108      1.0  0.42158  0.96603  0.22444  1.0000
  C   C109      1.0  0.49444  0.11437  0.30947  1.0000
  C   C110      1.0  0.48759  0.11998  0.22517  1.0000
  C   C111      1.0  0.47855  0.13829  0.21708  1.0000
  C   C112      1.0  0.47636  0.15161  0.29281  1.0000
  C   C113      1.0  0.61831  0.12265  0.30912  1.0000
  C   C114      1.0  0.62925  0.13256  0.22422  1.0000
  C   C115      1.0  0.67137  0.16587  0.29236  1.0000
  C   C116      1.0  0.65541  0.15394  0.21608  1.0000
  H   H45       1.0  0.66260  0.16088  0.15352  1.0000
  H   H46       1.0  0.61811  0.12455  0.16787  1.0000
  H   H47       1.0  0.62659  0.08052  0.31603  1.0000
  H   H48       1.0  0.60407  0.03021  0.31631  1.0000
  H   H49       1.0  0.54619  0.05070  0.31994  1.0000
  H   H50       1.0  0.50465  0.04795  0.32056  1.0000
  H   H51       1.0  0.59344  0.15218  0.31044  1.0000
  H   H52       1.0  0.54821  0.14918  0.31007  1.0000
  H   H53       1.0  0.48919  0.11080  0.16912  1.0000
  H   H54       1.0  0.47394  0.14207  0.15489  1.0000
  H   H55       1.0  0.44677  0.06845  0.31642  1.0000
  H   H56       1.0  0.42426  0.01814  0.31591  1.0000
  H   H57       1.0  0.50263  0.94947  0.30981  1.0000
  H   H58       1.0  0.45740  0.94647  0.31048  1.0000
  H   H59       1.0  0.43274  0.97394  0.16806  1.0000
  H   H60       1.0  0.38818  0.93773  0.15390  1.0000
  H   H61       1.0  0.56169  0.98783  0.16878  1.0000
  H   H62       1.0  0.57673  0.95639  0.15455  1.0000
  C   C117      1.0  0.35405  0.91108  0.28241  1.0000
  C   C118      1.0  0.46798  0.17003  0.28228  1.0000
  C   C119      1.0  0.69664  0.18783  0.28194  1.0000
  C   C120      1.0  0.58237  0.92824  0.28186  1.0000
  H   H63       1.0  0.35010  0.90027  0.22703  1.0000
  H   H64       1.0  0.45551  0.16748  0.23282  1.0000
  H   H65       1.0  0.70056  0.19850  0.22624  1.0000
  H   H66       1.0  0.59483  0.93069  0.23247  1.0000
  C   C121      1.0  0.22049  0.49031  0.25974  1.0000
  C   C122      1.0  0.19742  0.49259  0.26306  1.0000
  H   H67       1.0  0.18567  0.48811  0.20758  1.0000
  C   C123      1.0  0.26076  0.49647  0.33452  1.0000
  C   C124      1.0  0.30991  0.49776  0.32958  1.0000
  C   C125      1.0  0.29325  0.48965  0.25357  1.0000
  C   C126      1.0  0.26855  0.48889  0.25501  1.0000
  C   C127      1.0  0.25195  0.48159  0.17920  1.0000
  C   C128      1.0  0.22808  0.48228  0.18156  1.0000
  H   H68       1.0  0.25734  0.47621  0.12129  1.0000
  H   H69       1.0  0.21662  0.47743  0.12528  1.0000
  H   H70       1.0  0.29950  0.48516  0.19577  1.0000
  N   N13       1.0  0.33433  0.50115  0.33084  1.0000
  C   C129      1.0  0.58378  0.80426  0.25960  1.0000
  C   C130      1.0  0.58150  0.77891  0.26293  1.0000
  H   H71       1.0  0.58600  0.77165  0.20748  1.0000
  C   C131      1.0  0.57757  0.83836  0.33434  1.0000
  C   C132      1.0  0.57618  0.88617  0.32926  1.0000
  C   C133      1.0  0.58433  0.87763  0.25331  1.0000
  C   C134      1.0  0.58514  0.85371  0.25481  1.0000
  C   C135      1.0  0.59248  0.84443  0.17904  1.0000
  C   C136      1.0  0.59183  0.81989  0.18145  1.0000
  H   H72       1.0  0.59784  0.85517  0.12111  1.0000
  H   H73       1.0  0.59667  0.81326  0.12515  1.0000
  H   H74       1.0  0.58883  0.88837  0.19552  1.0000
  N   N14       1.0  0.57279  0.90720  0.33049  1.0000
  C   C137      1.0  0.26978  0.85358  0.25981  1.0000
  C   C138      1.0  0.29513  0.87664  0.26308  1.0000
  H   H75       1.0  0.30239  0.88840  0.20761  1.0000
  C   C139      1.0  0.23569  0.81329  0.33462  1.0000
  C   C140      1.0  0.18788  0.76409  0.32964  1.0000
  C   C141      1.0  0.19640  0.78077  0.25368  1.0000
  C   C142      1.0  0.22032  0.80549  0.25511  1.0000
  C   C143      1.0  0.22960  0.82210  0.17933  1.0000
  C   C144      1.0  0.25414  0.84598  0.18167  1.0000
  H   H76       1.0  0.21885  0.81669  0.12140  1.0000
  H   H77       1.0  0.26076  0.85742  0.12535  1.0000
  H   H78       1.0  0.18566  0.77451  0.19590  1.0000
  N   N15       1.0  0.16684  0.73969  0.33094  1.0000
  C   C145      1.0  0.82805  0.60880  0.25992  1.0000
  C   C146      1.0  0.85128  0.60681  0.26321  1.0000
  H   H79       1.0  0.86308  0.61146  0.20777  1.0000
  C   C147      1.0  0.78754  0.60206  0.33458  1.0000
  C   C148      1.0  0.73807  0.60010  0.32951  1.0000
  C   C149      1.0  0.75481  0.60850  0.25367  1.0000
  C   C150      1.0  0.77965  0.60957  0.25515  1.0000
  C   C151      1.0  0.79632  0.61713  0.17946  1.0000
  C   C152      1.0  0.82036  0.61678  0.18185  1.0000
  H   H80       1.0  0.79086  0.62245  0.12159  1.0000
  H   H81       1.0  0.83186  0.62177  0.12561  1.0000
  H   H82       1.0  0.74849  0.61292  0.19590  1.0000
  N   N16       1.0  0.71357  0.59650  0.33076  1.0000
  C   C153      1.0  0.46529  0.29333  0.25966  1.0000
  C   C154      1.0  0.46729  0.31855  0.26292  1.0000
  H   H83       1.0  0.46265  0.32570  0.20745  1.0000
  C   C155      1.0  0.47197  0.25954  0.33442  1.0000
  C   C156      1.0  0.47385  0.21198  0.32950  1.0000
  C   C157      1.0  0.46550  0.22034  0.25359  1.0000
  C   C158      1.0  0.46446  0.24414  0.25499  1.0000
  C   C159      1.0  0.45693  0.25324  0.17926  1.0000
  C   C160      1.0  0.45733  0.27766  0.18158  1.0000
  H   H84       1.0  0.45161  0.24245  0.12140  1.0000
  H   H85       1.0  0.45233  0.28415  0.12533  1.0000
  H   H86       1.0  0.46107  0.20959  0.19583  1.0000
  N   N17       1.0  0.47744  0.19108  0.33081  1.0000
  C   C161      1.0  0.78072  0.24603  0.25982  1.0000
  C   C162      1.0  0.75550  0.22280  0.26306  1.0000
  H   H87       1.0  0.74837  0.21100  0.20763  1.0000
  C   C163      1.0  0.81448  0.28653  0.33457  1.0000
  C   C164      1.0  0.86204  0.33596  0.32968  1.0000
  C   C165      1.0  0.85368  0.31926  0.25375  1.0000
  C   C166      1.0  0.82990  0.29441  0.25517  1.0000
  C   C167      1.0  0.82081  0.27776  0.17944  1.0000
  C   C168      1.0  0.79640  0.25373  0.18177  1.0000
  H   H88       1.0  0.83161  0.28321  0.12162  1.0000
  H   H89       1.0  0.78993  0.24223  0.12554  1.0000
  H   H90       1.0  0.86446  0.32556  0.19605  1.0000
  N   N18       1.0  0.88294  0.36046  0.33097  1.0000
  C   C169      1.0  0.10281  0.66154  0.38558  1.0000
  C   C170      1.0  0.12136  0.68887  0.37733  1.0000
  C   C171      1.0  0.10954  0.52632  0.38604  1.0000
  C   C172      1.0  0.13083  0.52133  0.37775  1.0000
  C   C173      1.0  0.92817  0.41145  0.37744  1.0000
  C   C174      1.0  0.94663  0.43880  0.38576  1.0000
  C   C175      1.0  0.93983  0.57396  0.38578  1.0000
  C   C176      1.0  0.91848  0.57884  0.37744  1.0000
  H   H91       1.0  0.91018  0.58127  0.43429  1.0000
  H   H92       1.0  0.94661  0.57311  0.44798  1.0000
  H   H93       1.0  0.95040  0.44746  0.44748  1.0000
  H   H94       1.0  0.91900  0.40084  0.43370  1.0000
  H   H95       1.0  0.10273  0.52714  0.44823  1.0000
  H   H96       1.0  0.13905  0.51881  0.43460  1.0000
  H   H97       1.0  0.13054  0.69946  0.43363  1.0000
  H   H98       1.0  0.09900  0.65288  0.44729  1.0000
  C   C177      1.0  0.41251  0.51539  0.38539  1.0000
  C   C178      1.0  0.38518  0.50658  0.37714  1.0000
  C   C179      1.0  0.54774  0.65732  0.38602  1.0000
  C   C180      1.0  0.55275  0.68360  0.37767  1.0000
  C   C181      1.0  0.66257  0.59074  0.37716  1.0000
  C   C182      1.0  0.63522  0.58187  0.38547  1.0000
  C   C183      1.0  0.50013  0.43997  0.38560  1.0000
  C   C184      1.0  0.49525  0.41373  0.37722  1.0000
  H   H99       1.0  0.49287  0.40302  0.43406  1.0000
  H   H100      1.0  0.50101  0.44760  0.44782  1.0000
  H   H101      1.0  0.62656  0.57697  0.44717  1.0000
  H   H102      1.0  0.67317  0.59214  0.43343  1.0000
  H   H103      1.0  0.54692  0.64971  0.44822  1.0000
  H   H104      1.0  0.55528  0.69437  0.43450  1.0000
  H   H105      1.0  0.37460  0.50521  0.43344  1.0000
  H   H106      1.0  0.42118  0.52027  0.44707  1.0000
  C   C185      1.0  0.55868  0.97122  0.38517  1.0000
  C   C186      1.0  0.56745  0.95267  0.37686  1.0000
  C   C187      1.0  0.41672  0.96456  0.38584  1.0000
  C   C188      1.0  0.39044  0.94329  0.37758  1.0000
  C   C189      1.0  0.48317  0.14583  0.37722  1.0000
  C   C190      1.0  0.49208  0.12738  0.38553  1.0000
  C   C191      1.0  0.63409  0.13422  0.38564  1.0000
  C   C192      1.0  0.66032  0.15558  0.37728  1.0000
  H   H107      1.0  0.67104  0.16388  0.43412  1.0000
  H   H108      1.0  0.62645  0.12745  0.44784  1.0000
  H   H109      1.0  0.49691  0.12357  0.44727  1.0000
  H   H110      1.0  0.48168  0.15497  0.43351  1.0000
  H   H111      1.0  0.42435  0.97140  0.44800  1.0000
  H   H112      1.0  0.37969  0.93508  0.43446  1.0000
  H   H113      1.0  0.56884  0.94348  0.43315  1.0000
  H   H114      1.0  0.55382  0.97503  0.44689  1.0000
  C   C193      1.0  0.19082  0.50191  0.34074  1.0000
  C   C194      1.0  0.20712  0.50736  0.41722  1.0000
  N   N19       1.0  0.22925  0.50500  0.41128  1.0000
  C   C195      1.0  0.23676  0.49712  0.33685  1.0000
  C   C196      1.0  0.30102  0.50498  0.40640  1.0000
  N   N20       1.0  0.27723  0.50414  0.40636  1.0000
  H   H115      1.0  0.31253  0.51142  0.46252  1.0000
  C   C197      1.0  0.20249  0.51652  0.50397  1.0000
  H   H116      1.0  0.18447  0.51798  0.50453  1.0000
  H   H117      1.0  0.21934  0.53609  0.51966  1.0000
  H   H118      1.0  0.20063  0.50257  0.55607  1.0000
  N   N21       1.0  0.17022  0.50604  0.34216  1.0000
  C   C198      1.0  0.57218  0.76301  0.34060  1.0000
  C   C199      1.0  0.56672  0.77387  0.41707  1.0000
  N   N22       1.0  0.56905  0.79834  0.41111  1.0000
  C   C200      1.0  0.57695  0.81372  0.33669  1.0000
  C   C201      1.0  0.56900  0.87009  0.40613  1.0000
  N   N23       1.0  0.56988  0.84716  0.40614  1.0000
  H   H119      1.0  0.56255  0.87516  0.46224  1.0000
  C   C202      1.0  0.55753  0.76007  0.50379  1.0000
  H   H120      1.0  0.55607  0.74059  0.50436  1.0000
  H   H121      1.0  0.53794  0.75735  0.51939  1.0000
  H   H122      1.0  0.57145  0.77217  0.55595  1.0000
  N   N24       1.0  0.56804  0.73827  0.34203  1.0000
  C   C203      1.0  0.31104  0.88326  0.34073  1.0000
  C   C204      1.0  0.30020  0.86696  0.41723  1.0000
  N   N25       1.0  0.27573  0.84482  0.41132  1.0000
  C   C205      1.0  0.26033  0.83731  0.33692  1.0000
  C   C206      1.0  0.20398  0.77301  0.40648  1.0000
  N   N26       1.0  0.22690  0.79682  0.40645  1.0000
  H   H123      1.0  0.19891  0.76150  0.46261  1.0000
  C   C207      1.0  0.31401  0.87159  0.50393  1.0000
  H   H124      1.0  0.33348  0.88961  0.50446  1.0000
  H   H125      1.0  0.31673  0.85474  0.51954  1.0000
  H   H126      1.0  0.30191  0.87343  0.55610  1.0000
  N   N27       1.0  0.33577  0.90386  0.34210  1.0000
  C   C208      1.0  0.85798  0.59753  0.34074  1.0000
  C   C209      1.0  0.84159  0.59183  0.41715  1.0000
  N   N28       1.0  0.81930  0.59390  0.41124  1.0000
  C   C210      1.0  0.81170  0.60173  0.33692  1.0000
  C   C211      1.0  0.74707  0.59300  0.40629  1.0000
  N   N29       1.0  0.77101  0.59415  0.40630  1.0000
  H   H127      1.0  0.73554  0.58640  0.46234  1.0000
  C   C212      1.0  0.84628  0.58265  0.50373  1.0000
  H   H128      1.0  0.86443  0.58142  0.50428  1.0000
  H   H129      1.0  0.82955  0.56297  0.51906  1.0000
  H   H130      1.0  0.84793  0.59645  0.55609  1.0000
  N   N30       1.0  0.87873  0.59363  0.34208  1.0000
  C   C213      1.0  0.47655  0.33454  0.34045  1.0000
  C   C214      1.0  0.48223  0.32386  0.41690  1.0000
  N   N31       1.0  0.48015  0.29949  0.41102  1.0000
  C   C215      1.0  0.47233  0.28405  0.33670  1.0000
  C   C216      1.0  0.48098  0.22813  0.40623  1.0000
  N   N32       1.0  0.47986  0.25092  0.40618  1.0000
  H   H131      1.0  0.48755  0.22319  0.46231  1.0000
  C   C217      1.0  0.49139  0.33774  0.50350  1.0000
  H   H132      1.0  0.49264  0.35712  0.50402  1.0000
  H   H133      1.0  0.51107  0.34068  0.51889  1.0000
  H   H134      1.0  0.47758  0.32559  0.55582  1.0000
  N   N33       1.0  0.48045  0.35919  0.34180  1.0000
  C   C218      1.0  0.73951  0.21609  0.34058  1.0000
  C   C219      1.0  0.75018  0.23247  0.41703  1.0000
  N   N34       1.0  0.77453  0.25476  0.41115  1.0000
  C   C220      1.0  0.78998  0.26237  0.33685  1.0000
  C   C221      1.0  0.84589  0.32696  0.40639  1.0000
  N   N35       1.0  0.82309  0.30304  0.40633  1.0000
  H   H135      1.0  0.85082  0.33849  0.46247  1.0000
  C   C222      1.0  0.73629  0.22776  0.50361  1.0000
  H   H136      1.0  0.71691  0.20961  0.50413  1.0000
  H   H137      1.0  0.73333  0.24449  0.51896  1.0000
  H   H138      1.0  0.74844  0.22611  0.55595  1.0000
  N   N36       1.0  0.71486  0.19534  0.34191  1.0000
