data_image0
_chemical_formula_structural       H2C3HNC6H6N2C6H6N2CNC4H2CH3CHCNC4H2CH3CHC5H2CHCHC12H5CNC2NHN2C12H5CNC2NHN2C4HCNHCH3CHC4HCNHCH3CHC2HCNH3CH
_chemical_formula_sum              "H60 C84 N18"
_cell_length_a       44.0317
_cell_length_b       44.0316
_cell_length_c       14.9556
_cell_angle_alpha    90
_cell_angle_beta     90
_cell_angle_gamma    120

_space_group_name_H-M_alt    "P 1"
_space_group_IT_number       1

loop_
  _space_group_symop_operation_xyz
  'x, y, z'

loop_
  _atom_site_type_symbol
  _atom_site_label
  _atom_site_symmetry_multiplicity
  _atom_site_fract_x
  _atom_site_fract_y
  _atom_site_fract_z
  _atom_site_occupancy
  H   H1        1.0  0.00277  0.54205  0.20416  1.0000
  H   H2        1.0  0.00658  0.50945  0.14306  1.0000
  C   C1        1.0  0.01953  0.50750  0.34770  1.0000
  C   C2        1.0  0.03268  0.52554  0.43030  1.0000
  C   C3        1.0  0.00938  0.52452  0.50378  1.0000
  H   H3        1.0  0.02387  0.54252  0.55825  1.0000
  N   N1        1.0  0.04306  0.51070  0.28417  1.0000
  C   C4        1.0  0.37017  0.74175  0.33278  1.0000
  C   C5        1.0  0.20491  0.62591  0.34983  1.0000
  C   C6        1.0  0.24178  0.64546  0.34804  1.0000
  C   C7        1.0  0.35172  0.76003  0.31811  1.0000
  C   C8        1.0  0.36906  0.79694  0.31888  1.0000
  C   C9        1.0  0.40532  0.81683  0.33632  1.0000
  H   H4        1.0  0.19124  0.63876  0.36015  1.0000
  H   H5        1.0  0.25361  0.67192  0.35863  1.0000
  H   H6        1.0  0.32533  0.74669  0.30571  1.0000
  H   H7        1.0  0.35488  0.80923  0.30770  1.0000
  H   H8        1.0  0.36500  0.55312  0.36023  1.0000
  H   H9        1.0  0.33186  0.58234  0.35868  1.0000
  N   N2        1.0  0.31702  0.68463  0.33214  1.0000
  N   N3        1.0  0.42050  0.85166  0.33545  1.0000
  C   C10       1.0  0.63040  0.26128  0.33771  1.0000
  C   C11       1.0  0.79789  0.36949  0.31761  1.0000
  C   C12       1.0  0.76099  0.35189  0.31842  1.0000
  C   C13       1.0  0.64653  0.24110  0.35731  1.0000
  C   C14       1.0  0.62713  0.20420  0.35787  1.0000
  C   C15       1.0  0.59111  0.18620  0.33670  1.0000
  H   H10       1.0  0.81026  0.35558  0.30395  1.0000
  H   H11       1.0  0.74774  0.32567  0.30384  1.0000
  H   H12       1.0  0.67264  0.25305  0.37276  1.0000
  H   H13       1.0  0.63962  0.19050  0.37288  1.0000
  H   H14       1.0  0.64826  0.45540  0.30381  1.0000
  H   H15       1.0  0.67818  0.42281  0.30375  1.0000
  N   N4        1.0  0.68571  0.31645  0.33779  1.0000
  N   N5        1.0  0.57394  0.15133  0.33898  1.0000
  C   C16       1.0  0.47348  0.54867  0.29303  1.0000
  N   N6        1.0  0.49309  0.53301  0.28421  1.0000
  C   C17       1.0  0.51707  0.49719  0.32600  1.0000
  C   C18       1.0  0.51407  0.47873  0.24507  1.0000
  C   C19       1.0  0.53636  0.46441  0.23338  1.0000
  C   C20       1.0  0.56066  0.46782  0.29971  1.0000
  H   H16       1.0  0.53462  0.45090  0.17600  1.0000
  H   H17       1.0  0.47231  0.56284  0.24034  1.0000
  C   C21       1.0  0.48772  0.47277  0.17480  1.0000
  H   H18       1.0  0.46163  0.46120  0.20451  1.0000
  H   H19       1.0  0.48671  0.45508  0.12221  1.0000
  H   H20       1.0  0.49414  0.49759  0.14320  1.0000
  C   C22       1.0  0.58238  0.45400  0.28690  1.0000
  H   H21       1.0  0.59818  0.46173  0.23395  1.0000
  C   C23       1.0  0.45498  0.92547  0.29287  1.0000
  N   N7        1.0  0.47062  0.96074  0.28412  1.0000
  C   C24       1.0  0.50630  0.02057  0.32602  1.0000
  C   C25       1.0  0.52447  0.03599  0.24470  1.0000
  C   C26       1.0  0.53886  0.07261  0.23310  1.0000
  C   C27       1.0  0.53583  0.09359  0.29986  1.0000
  H   H22       1.0  0.55217  0.08434  0.17546  1.0000
  H   H23       1.0  0.44100  0.91015  0.23996  1.0000
  C   C28       1.0  0.53008  0.01556  0.17386  1.0000
  H   H24       1.0  0.54162  0.00091  0.20293  1.0000
  H   H25       1.0  0.54766  0.03222  0.12107  1.0000
  H   H26       1.0  0.50513  0.99728  0.14261  1.0000
  C   C29       1.0  0.54971  0.12914  0.28710  1.0000
  H   H27       1.0  0.54206  0.13724  0.23405  1.0000
  C   C30       1.0  0.07832  0.53030  0.29297  1.0000
  C   C31       1.0  0.98326  0.48671  0.32599  1.0000
  C   C32       1.0  0.96780  0.48965  0.24499  1.0000
  C   C33       1.0  0.93119  0.46740  0.23332  1.0000
  C   C34       1.0  0.91027  0.44316  0.29974  1.0000
  H   H28       1.0  0.91944  0.46911  0.17588  1.0000
  H   H29       1.0  0.09366  0.53150  0.24024  1.0000
  C   C35       1.0  0.98822  0.51594  0.17460  1.0000
  H   H30       1.0  0.97154  0.51694  0.12197  1.0000
  C   C36       1.0  0.87473  0.42146  0.28694  1.0000
  H   H31       1.0  0.86665  0.40566  0.23399  1.0000
  C   C37       1.0  0.26205  0.62910  0.33287  1.0000
  C   C38       1.0  0.37469  0.63360  0.33298  1.0000
  C   C39       1.0  0.24374  0.59235  0.31842  1.0000
  C   C40       1.0  0.20683  0.57281  0.31924  1.0000
  C   C41       1.0  0.18696  0.58922  0.33651  1.0000
  C   C42       1.0  0.42408  0.79891  0.34989  1.0000
  C   C43       1.0  0.40679  0.76204  0.34812  1.0000
  C   C44       1.0  0.41145  0.65204  0.31856  1.0000
  C   C45       1.0  0.43097  0.63465  0.31939  1.0000
  C   C46       1.0  0.41455  0.59837  0.33665  1.0000
  C   C47       1.0  0.37786  0.57964  0.34992  1.0000
  C   C48       1.0  0.35832  0.59697  0.34813  1.0000
  H   H32       1.0  0.19452  0.54633  0.30817  1.0000
  H   H33       1.0  0.42142  0.75023  0.35886  1.0000
  H   H34       1.0  0.45059  0.81260  0.36035  1.0000
  H   H35       1.0  0.42453  0.67843  0.30625  1.0000
  H   H36       1.0  0.45745  0.64881  0.30833  1.0000
  C   C49       1.0  0.35485  0.65117  0.33216  1.0000
  N   N8        1.0  0.37075  0.68678  0.33220  1.0000
  C   C50       1.0  0.35263  0.70434  0.33206  1.0000
  C   C51       1.0  0.29946  0.64895  0.33210  1.0000
  N   N9        1.0  0.31916  0.63305  0.33223  1.0000
  H   H37       1.0  0.25706  0.57928  0.30612  1.0000
  N   N10       1.0  0.43416  0.58315  0.33572  1.0000
  N   N11       1.0  0.15213  0.56960  0.33560  1.0000
  C   C52       1.0  0.74259  0.36989  0.33770  1.0000
  C   C53       1.0  0.63397  0.37344  0.33769  1.0000
  C   C54       1.0  0.76273  0.40620  0.35728  1.0000
  C   C55       1.0  0.79964  0.42372  0.35783  1.0000
  C   C56       1.0  0.81766  0.40574  0.33661  1.0000
  C   C57       1.0  0.57466  0.20599  0.31768  1.0000
  C   C58       1.0  0.59399  0.24289  0.31844  1.0000
  C   C59       1.0  0.59767  0.35728  0.35730  1.0000
  C   C60       1.0  0.58014  0.37666  0.35785  1.0000
  C   C61       1.0  0.59811  0.41265  0.33652  1.0000
  C   C62       1.0  0.63435  0.42913  0.31753  1.0000
  C   C63       1.0  0.65196  0.40984  0.31834  1.0000
  H   H38       1.0  0.81332  0.44992  0.37280  1.0000
  H   H39       1.0  0.58104  0.25616  0.30387  1.0000
  H   H40       1.0  0.54839  0.19365  0.30406  1.0000
  H   H41       1.0  0.58353  0.33118  0.37286  1.0000
  H   H42       1.0  0.55394  0.36414  0.37284  1.0000
  C   C64       1.0  0.65178  0.35384  0.33780  1.0000
  N   N12       1.0  0.63387  0.31816  0.33778  1.0000
  C   C65       1.0  0.65002  0.29869  0.33780  1.0000
  C   C66       1.0  0.70517  0.35208  0.33780  1.0000
  N   N13       1.0  0.68741  0.37000  0.33777  1.0000
  H   H43       1.0  0.75077  0.42034  0.37276  1.0000
  N   N14       1.0  0.58036  0.42977  0.33876  1.0000
  N   N15       1.0  0.85253  0.42348  0.33882  1.0000
  C   C67       1.0  0.45415  0.54411  0.37211  1.0000
  C   C68       1.0  0.49625  0.51264  0.34770  1.0000
  C   C69       1.0  0.47816  0.50769  0.43022  1.0000
  C   C70       1.0  0.45713  0.52349  0.44031  1.0000
  H   H44       1.0  0.44339  0.51962  0.49852  1.0000
  C   C71       1.0  0.56257  0.48651  0.37791  1.0000
  N   N16       1.0  0.54122  0.50019  0.38743  1.0000
  H   H45       1.0  0.57995  0.49018  0.42785  1.0000
  C   C72       1.0  0.47914  0.48535  0.50360  1.0000
  H   H46       1.0  0.50547  0.49741  0.53193  1.0000
  H   H47       1.0  0.47192  0.45942  0.47783  1.0000
  H   H48       1.0  0.46112  0.48180  0.55804  1.0000
  C   C73       1.0  0.43159  0.55743  0.38251  1.0000
  H   H49       1.0  0.41286  0.54673  0.42874  1.0000
  C   C74       1.0  0.45939  0.91069  0.37212  1.0000
  C   C75       1.0  0.49081  0.98428  0.34779  1.0000
  C   C76       1.0  0.49555  0.97111  0.43055  1.0000
  C   C77       1.0  0.47977  0.93428  0.44060  1.0000
  H   H50       1.0  0.48349  0.92439  0.49897  1.0000
  C   C78       1.0  0.51739  0.07686  0.37837  1.0000
  N   N17       1.0  0.50362  0.04181  0.38779  1.0000
  H   H51       1.0  0.51396  0.09062  0.42862  1.0000
  C   C79       1.0  0.51761  0.99438  0.50437  1.0000
  H   H52       1.0  0.50537  0.00851  0.53243  1.0000
  H   H53       1.0  0.54359  0.01319  0.47911  1.0000
  H   H54       1.0  0.52107  0.97988  0.55890  1.0000
  C   C80       1.0  0.44611  0.87482  0.38250  1.0000
  H   H55       1.0  0.45675  0.86680  0.42891  1.0000
  C   C81       1.0  0.09311  0.54958  0.37210  1.0000
  C   C82       1.0  0.06951  0.54656  0.44038  1.0000
  H   H56       1.0  0.07940  0.56027  0.49863  1.0000
  C   C83       1.0  0.92704  0.44128  0.37800  1.0000
  N   N18       1.0  0.96208  0.46261  0.38750  1.0000
  H   H57       1.0  0.91331  0.42394  0.42800  1.0000
  H   H58       1.0  0.99513  0.49818  0.53205  1.0000
  H   H59       1.0  0.99066  0.53175  0.47814  1.0000
  C   C84       1.0  0.12898  0.57214  0.38249  1.0000
  H   H60       1.0  0.13702  0.59085  0.42880  1.0000
