data_image0
_chemical_formula_structural       C4NC4NH4N2C4H2C2H2CHC4H2C2H2CHC2HC2H3N2C6H4CHC6H4CHC4NC4NH4N2C4H2C2H2CHC4H2C2H2CHC2HC2H3N2C6H4CHC6H4CHC4NC4NH4N2C4H2C2H2CHC4H2C2H2CHC2HC2H3N2C6H4CHC6H4CHC4NC4NH4N2C4H2C2H2CHC4H2C2H2CHC2HC2H3N2C6H4CHC6H4CH
_chemical_formula_sum              "C160 N24 H112"
_cell_length_a       39.2222
_cell_length_b       39.2222
_cell_length_c       15.0518
_cell_angle_alpha    90
_cell_angle_beta     90
_cell_angle_gamma    90

_space_group_name_H-M_alt    "P 1"
_space_group_IT_number       1

loop_
  _space_group_symop_operation_xyz
  'x, y, z'

loop_
  _atom_site_type_symbol
  _atom_site_label
  _atom_site_symmetry_multiplicity
  _atom_site_fract_x
  _atom_site_fract_y
  _atom_site_fract_z
  _atom_site_occupancy
  C   C1        1.0  0.00936  0.48478  0.31437  1.0000
  C   C2        1.0  0.05974  0.43494  0.25980  1.0000
  C   C3        1.0  0.06803  0.47012  0.26371  1.0000
  C   C4        1.0  0.04292  0.49407  0.28855  1.0000
  N   N1        1.0  0.08351  0.41143  0.23405  1.0000
  C   C5        1.0  0.48476  0.00942  0.34378  1.0000
  C   C6        1.0  0.44929  0.00225  0.34673  1.0000
  C   C7        1.0  0.42469  0.02658  0.37286  1.0000
  C   C8        1.0  0.43499  0.05986  0.39840  1.0000
  N   N2        1.0  0.41153  0.08367  0.42415  1.0000
  H   H1        1.0  0.38740  0.07833  0.42909  1.0000
  H   H2        1.0  0.10612  0.41804  0.21435  1.0000
  H   H3        1.0  0.04951  0.01908  0.28497  1.0000
  H   H4        1.0  0.44049  0.47967  0.32257  1.0000
  N   N3        1.0  0.39087  0.01998  0.36691  1.0000
  N   N4        1.0  0.10101  0.47938  0.25210  1.0000
  C   C9        1.0  0.50804  0.15478  0.39905  1.0000
  C   C10       1.0  0.50431  0.22786  0.37540  1.0000
  C   C11       1.0  0.53412  0.20883  0.35399  1.0000
  C   C12       1.0  0.53617  0.17334  0.36635  1.0000
  H   H5        1.0  0.55441  0.21988  0.32302  1.0000
  H   H6        1.0  0.05764  0.16092  0.34503  1.0000
  C   C13       1.0  0.02764  0.31945  0.32227  1.0000
  C   C14       1.0  0.03037  0.28438  0.33984  1.0000
  H   H7        1.0  0.04963  0.33295  0.31213  1.0000
  H   H8        1.0  0.05452  0.27487  0.34335  1.0000
  C   C15       1.0  0.00886  0.11888  0.39884  1.0000
  H   H9        1.0  0.03029  0.10669  0.37680  1.0000
  C   C16       1.0  0.33596  0.49569  0.33638  1.0000
  C   C17       1.0  0.26363  0.50138  0.30128  1.0000
  C   C18       1.0  0.28075  0.46937  0.30336  1.0000
  C   C19       1.0  0.31593  0.46652  0.31983  1.0000
  H   H10       1.0  0.26785  0.44699  0.29594  1.0000
  H   H11       1.0  0.32674  0.94275  0.32011  1.0000
  C   C20       1.0  0.17333  0.97864  0.23415  1.0000
  C   C21       1.0  0.20885  0.97704  0.24535  1.0000
  H   H12       1.0  0.16116  0.95783  0.20815  1.0000
  H   H13       1.0  0.22044  0.95537  0.22331  1.0000
  C   C22       1.0  0.37142  0.99249  0.34853  1.0000
  H   H14       1.0  0.38273  0.96917  0.34133  1.0000
  C   C23       1.0  0.00215  0.44932  0.31155  1.0000
  C   C24       1.0  0.02645  0.42468  0.28549  1.0000
  H   H15       1.0  0.47957  0.44055  0.33581  1.0000
  C   C25       1.0  0.47019  0.06810  0.39443  1.0000
  C   C26       1.0  0.49411  0.04297  0.36952  1.0000
  H   H16       1.0  0.01913  0.04951  0.37316  1.0000
  H   H17       1.0  0.41817  0.10630  0.44370  1.0000
  H   H18       1.0  0.07812  0.38731  0.22911  1.0000
  N   N5        1.0  0.47952  0.10106  0.40631  1.0000
  N   N6        1.0  0.01985  0.39087  0.29172  1.0000
  C   C27       1.0  0.47884  0.17332  0.42508  1.0000
  C   C28       1.0  0.47722  0.20885  0.41410  1.0000
  C   C29       1.0  0.50143  0.26366  0.35795  1.0000
  C   C30       1.0  0.46941  0.28078  0.35638  1.0000
  C   C31       1.0  0.46651  0.31594  0.33977  1.0000
  C   C32       1.0  0.49563  0.33598  0.32276  1.0000
  H   H19       1.0  0.44705  0.26786  0.36403  1.0000
  H   H20       1.0  0.44273  0.32674  0.33975  1.0000
  H   H21       1.0  0.45809  0.16113  0.45134  1.0000
  H   H22       1.0  0.45560  0.22043  0.43649  1.0000
  C   C33       1.0  0.49239  0.37143  0.31045  1.0000
  H   H23       1.0  0.46907  0.38273  0.31784  1.0000
  C   C34       1.0  0.31942  0.52769  0.33658  1.0000
  C   C35       1.0  0.28434  0.53037  0.31896  1.0000
  C   C36       1.0  0.22783  0.50422  0.28369  1.0000
  C   C37       1.0  0.20880  0.53409  0.30449  1.0000
  C   C38       1.0  0.17331  0.53609  0.29208  1.0000
  C   C39       1.0  0.15477  0.50790  0.25964  1.0000
  H   H24       1.0  0.21981  0.55442  0.33541  1.0000
  H   H25       1.0  0.16087  0.55759  0.31304  1.0000
  H   H26       1.0  0.33291  0.54970  0.34637  1.0000
  H   H27       1.0  0.27481  0.55451  0.31524  1.0000
  C   C40       1.0  0.11886  0.50869  0.25971  1.0000
  H   H28       1.0  0.10672  0.53021  0.28127  1.0000
  C   C41       1.0  0.00936  0.98478  0.31437  1.0000
  C   C42       1.0  0.05974  0.93493  0.25980  1.0000
  C   C43       1.0  0.06803  0.97012  0.26371  1.0000
  C   C44       1.0  0.04292  0.99407  0.28855  1.0000
  N   N7        1.0  0.08351  0.91143  0.23405  1.0000
  C   C45       1.0  0.48476  0.50942  0.34378  1.0000
  C   C46       1.0  0.44929  0.50225  0.34673  1.0000
  C   C47       1.0  0.42469  0.52658  0.37286  1.0000
  C   C48       1.0  0.43499  0.55986  0.39840  1.0000
  N   N8        1.0  0.41153  0.58367  0.42415  1.0000
  H   H29       1.0  0.38740  0.57832  0.42909  1.0000
  H   H30       1.0  0.10612  0.91804  0.21435  1.0000
  H   H31       1.0  0.04951  0.51908  0.28497  1.0000
  H   H32       1.0  0.44049  0.97967  0.32257  1.0000
  N   N9        1.0  0.39087  0.51998  0.36691  1.0000
  N   N10       1.0  0.10101  0.97938  0.25210  1.0000
  C   C49       1.0  0.50804  0.65478  0.39905  1.0000
  C   C50       1.0  0.50431  0.72786  0.37540  1.0000
  C   C51       1.0  0.53412  0.70883  0.35399  1.0000
  C   C52       1.0  0.53617  0.67334  0.36635  1.0000
  H   H33       1.0  0.55441  0.71988  0.32302  1.0000
  H   H34       1.0  0.05764  0.66092  0.34503  1.0000
  C   C53       1.0  0.02764  0.81945  0.32227  1.0000
  C   C54       1.0  0.03037  0.78438  0.33984  1.0000
  H   H35       1.0  0.04963  0.83295  0.31213  1.0000
  H   H36       1.0  0.05452  0.77487  0.34335  1.0000
  C   C55       1.0  0.00886  0.61888  0.39884  1.0000
  H   H37       1.0  0.03029  0.60669  0.37680  1.0000
  C   C56       1.0  0.33596  0.99569  0.33638  1.0000
  C   C57       1.0  0.26363  0.00138  0.30128  1.0000
  C   C58       1.0  0.28075  0.96937  0.30336  1.0000
  C   C59       1.0  0.31593  0.96652  0.31983  1.0000
  H   H38       1.0  0.26785  0.94699  0.29594  1.0000
  H   H39       1.0  0.32674  0.44275  0.32011  1.0000
  C   C60       1.0  0.17333  0.47864  0.23415  1.0000
  C   C61       1.0  0.20885  0.47704  0.24535  1.0000
  H   H40       1.0  0.16116  0.45783  0.20815  1.0000
  H   H41       1.0  0.22044  0.45537  0.22331  1.0000
  C   C62       1.0  0.37142  0.49249  0.34853  1.0000
  H   H42       1.0  0.38273  0.46917  0.34133  1.0000
  C   C63       1.0  0.00215  0.94932  0.31155  1.0000
  C   C64       1.0  0.02645  0.92468  0.28549  1.0000
  H   H43       1.0  0.47957  0.94055  0.33581  1.0000
  C   C65       1.0  0.47019  0.56810  0.39443  1.0000
  C   C66       1.0  0.49411  0.54297  0.36952  1.0000
  H   H44       1.0  0.01913  0.54951  0.37316  1.0000
  H   H45       1.0  0.41817  0.60630  0.44370  1.0000
  H   H46       1.0  0.07812  0.88731  0.22911  1.0000
  N   N11       1.0  0.47952  0.60106  0.40631  1.0000
  N   N12       1.0  0.01985  0.89087  0.29172  1.0000
  C   C67       1.0  0.47884  0.67332  0.42508  1.0000
  C   C68       1.0  0.47722  0.70885  0.41410  1.0000
  C   C69       1.0  0.50143  0.76366  0.35795  1.0000
  C   C70       1.0  0.46941  0.78078  0.35638  1.0000
  C   C71       1.0  0.46651  0.81594  0.33977  1.0000
  C   C72       1.0  0.49563  0.83598  0.32276  1.0000
  H   H47       1.0  0.44705  0.76786  0.36403  1.0000
  H   H48       1.0  0.44273  0.82674  0.33975  1.0000
  H   H49       1.0  0.45809  0.66113  0.45134  1.0000
  H   H50       1.0  0.45560  0.72043  0.43649  1.0000
  C   C73       1.0  0.49239  0.87143  0.31045  1.0000
  H   H51       1.0  0.46907  0.88273  0.31784  1.0000
  C   C74       1.0  0.31942  0.02769  0.33658  1.0000
  C   C75       1.0  0.28434  0.03037  0.31896  1.0000
  C   C76       1.0  0.22783  0.00422  0.28369  1.0000
  C   C77       1.0  0.20880  0.03409  0.30449  1.0000
  C   C78       1.0  0.17331  0.03609  0.29208  1.0000
  C   C79       1.0  0.15477  0.00790  0.25964  1.0000
  H   H52       1.0  0.21981  0.05442  0.33541  1.0000
  H   H53       1.0  0.16087  0.05759  0.31304  1.0000
  H   H54       1.0  0.33291  0.04970  0.34637  1.0000
  H   H55       1.0  0.27481  0.05450  0.31524  1.0000
  C   C80       1.0  0.11886  0.00869  0.25971  1.0000
  H   H56       1.0  0.10672  0.03021  0.28127  1.0000
  C   C81       1.0  0.50936  0.48478  0.31437  1.0000
  C   C82       1.0  0.55974  0.43494  0.25980  1.0000
  C   C83       1.0  0.56803  0.47012  0.26371  1.0000
  C   C84       1.0  0.54292  0.49407  0.28855  1.0000
  N   N13       1.0  0.58351  0.41143  0.23405  1.0000
  C   C85       1.0  0.98476  0.00942  0.34378  1.0000
  C   C86       1.0  0.94929  0.00225  0.34673  1.0000
  C   C87       1.0  0.92469  0.02658  0.37286  1.0000
  C   C88       1.0  0.93500  0.05986  0.39840  1.0000
  N   N14       1.0  0.91153  0.08367  0.42415  1.0000
  H   H57       1.0  0.88740  0.07833  0.42909  1.0000
  H   H58       1.0  0.60612  0.41804  0.21435  1.0000
  H   H59       1.0  0.54951  0.01908  0.28497  1.0000
  H   H60       1.0  0.94049  0.47967  0.32257  1.0000
  N   N15       1.0  0.89088  0.01998  0.36691  1.0000
  N   N16       1.0  0.60102  0.47938  0.25210  1.0000
  C   C89       1.0  0.00804  0.15478  0.39905  1.0000
  C   C90       1.0  0.00431  0.22786  0.37540  1.0000
  C   C91       1.0  0.03412  0.20883  0.35399  1.0000
  C   C92       1.0  0.03617  0.17334  0.36635  1.0000
  H   H61       1.0  0.05442  0.21988  0.32302  1.0000
  H   H62       1.0  0.55763  0.16092  0.34503  1.0000
  C   C93       1.0  0.52764  0.31945  0.32227  1.0000
  C   C94       1.0  0.53037  0.28438  0.33984  1.0000
  H   H63       1.0  0.54963  0.33295  0.31213  1.0000
  H   H64       1.0  0.55452  0.27487  0.34335  1.0000
  C   C95       1.0  0.50887  0.11888  0.39884  1.0000
  H   H65       1.0  0.53029  0.10669  0.37680  1.0000
  C   C96       1.0  0.83596  0.49569  0.33638  1.0000
  C   C97       1.0  0.76363  0.50138  0.30128  1.0000
  C   C98       1.0  0.78075  0.46937  0.30336  1.0000
  C   C99       1.0  0.81593  0.46652  0.31983  1.0000
  H   H66       1.0  0.76785  0.44699  0.29594  1.0000
  H   H67       1.0  0.82674  0.94275  0.32011  1.0000
  C   C100      1.0  0.67333  0.97864  0.23415  1.0000
  C   C101      1.0  0.70885  0.97704  0.24535  1.0000
  H   H68       1.0  0.66116  0.95783  0.20815  1.0000
  H   H69       1.0  0.72044  0.95537  0.22331  1.0000
  C   C102      1.0  0.87142  0.99249  0.34853  1.0000
  H   H70       1.0  0.88273  0.96917  0.34133  1.0000
  C   C103      1.0  0.50215  0.44932  0.31155  1.0000
  C   C104      1.0  0.52645  0.42468  0.28549  1.0000
  H   H71       1.0  0.97958  0.44055  0.33581  1.0000
  C   C105      1.0  0.97019  0.06810  0.39443  1.0000
  C   C106      1.0  0.99411  0.04297  0.36952  1.0000
  H   H72       1.0  0.51913  0.04951  0.37316  1.0000
  H   H73       1.0  0.91817  0.10630  0.44370  1.0000
  H   H74       1.0  0.57812  0.38731  0.22911  1.0000
  N   N17       1.0  0.97952  0.10106  0.40631  1.0000
  N   N18       1.0  0.51985  0.39087  0.29172  1.0000
  C   C107      1.0  0.97884  0.17332  0.42508  1.0000
  C   C108      1.0  0.97722  0.20885  0.41410  1.0000
  C   C109      1.0  0.00143  0.26366  0.35795  1.0000
  C   C110      1.0  0.96940  0.28078  0.35638  1.0000
  C   C111      1.0  0.96651  0.31594  0.33977  1.0000
  C   C112      1.0  0.99563  0.33598  0.32276  1.0000
  H   H75       1.0  0.94704  0.26786  0.36403  1.0000
  H   H76       1.0  0.94273  0.32674  0.33975  1.0000
  H   H77       1.0  0.95809  0.16113  0.45134  1.0000
  H   H78       1.0  0.95560  0.22043  0.43649  1.0000
  C   C113      1.0  0.99239  0.37143  0.31045  1.0000
  H   H79       1.0  0.96907  0.38273  0.31784  1.0000
  C   C114      1.0  0.81942  0.52769  0.33658  1.0000
  C   C115      1.0  0.78434  0.53037  0.31896  1.0000
  C   C116      1.0  0.72783  0.50422  0.28369  1.0000
  C   C117      1.0  0.70880  0.53409  0.30449  1.0000
  C   C118      1.0  0.67331  0.53609  0.29208  1.0000
  C   C119      1.0  0.65477  0.50790  0.25964  1.0000
  H   H80       1.0  0.71981  0.55442  0.33541  1.0000
  H   H81       1.0  0.66087  0.55759  0.31304  1.0000
  H   H82       1.0  0.83291  0.54970  0.34637  1.0000
  H   H83       1.0  0.77481  0.55451  0.31524  1.0000
  C   C120      1.0  0.61886  0.50869  0.25971  1.0000
  H   H84       1.0  0.60672  0.53021  0.28127  1.0000
  C   C121      1.0  0.50936  0.98478  0.31437  1.0000
  C   C122      1.0  0.55974  0.93493  0.25980  1.0000
  C   C123      1.0  0.56803  0.97012  0.26371  1.0000
  C   C124      1.0  0.54292  0.99407  0.28855  1.0000
  N   N19       1.0  0.58351  0.91143  0.23405  1.0000
  C   C125      1.0  0.98476  0.50942  0.34378  1.0000
  C   C126      1.0  0.94929  0.50225  0.34673  1.0000
  C   C127      1.0  0.92469  0.52658  0.37286  1.0000
  C   C128      1.0  0.93500  0.55986  0.39840  1.0000
  N   N20       1.0  0.91153  0.58367  0.42415  1.0000
  H   H85       1.0  0.88740  0.57832  0.42909  1.0000
  H   H86       1.0  0.60612  0.91804  0.21435  1.0000
  H   H87       1.0  0.54951  0.51908  0.28497  1.0000
  H   H88       1.0  0.94049  0.97967  0.32257  1.0000
  N   N21       1.0  0.89088  0.51998  0.36691  1.0000
  N   N22       1.0  0.60102  0.97938  0.25210  1.0000
  C   C129      1.0  0.00804  0.65478  0.39905  1.0000
  C   C130      1.0  0.00431  0.72786  0.37540  1.0000
  C   C131      1.0  0.03412  0.70883  0.35399  1.0000
  C   C132      1.0  0.03617  0.67334  0.36635  1.0000
  H   H89       1.0  0.05442  0.71988  0.32302  1.0000
  H   H90       1.0  0.55763  0.66092  0.34503  1.0000
  C   C133      1.0  0.52764  0.81945  0.32227  1.0000
  C   C134      1.0  0.53037  0.78438  0.33984  1.0000
  H   H91       1.0  0.54963  0.83295  0.31213  1.0000
  H   H92       1.0  0.55452  0.77487  0.34335  1.0000
  C   C135      1.0  0.50887  0.61888  0.39884  1.0000
  H   H93       1.0  0.53029  0.60669  0.37680  1.0000
  C   C136      1.0  0.83596  0.99569  0.33638  1.0000
  C   C137      1.0  0.76363  0.00138  0.30128  1.0000
  C   C138      1.0  0.78075  0.96937  0.30336  1.0000
  C   C139      1.0  0.81593  0.96652  0.31983  1.0000
  H   H94       1.0  0.76785  0.94699  0.29594  1.0000
  H   H95       1.0  0.82674  0.44275  0.32011  1.0000
  C   C140      1.0  0.67333  0.47864  0.23415  1.0000
  C   C141      1.0  0.70885  0.47704  0.24535  1.0000
  H   H96       1.0  0.66116  0.45783  0.20815  1.0000
  H   H97       1.0  0.72044  0.45537  0.22331  1.0000
  C   C142      1.0  0.87142  0.49249  0.34853  1.0000
  H   H98       1.0  0.88273  0.46917  0.34133  1.0000
  C   C143      1.0  0.50215  0.94932  0.31155  1.0000
  C   C144      1.0  0.52645  0.92468  0.28549  1.0000
  H   H99       1.0  0.97958  0.94055  0.33581  1.0000
  C   C145      1.0  0.97019  0.56810  0.39443  1.0000
  C   C146      1.0  0.99411  0.54297  0.36952  1.0000
  H   H100      1.0  0.51913  0.54951  0.37316  1.0000
  H   H101      1.0  0.91817  0.60630  0.44370  1.0000
  H   H102      1.0  0.57812  0.88731  0.22911  1.0000
  N   N23       1.0  0.97952  0.60106  0.40631  1.0000
  N   N24       1.0  0.51985  0.89087  0.29172  1.0000
  C   C147      1.0  0.97884  0.67332  0.42508  1.0000
  C   C148      1.0  0.97722  0.70885  0.41410  1.0000
  C   C149      1.0  0.00143  0.76366  0.35795  1.0000
  C   C150      1.0  0.96940  0.78078  0.35638  1.0000
  C   C151      1.0  0.96651  0.81594  0.33977  1.0000
  C   C152      1.0  0.99563  0.83598  0.32276  1.0000
  H   H103      1.0  0.94704  0.76786  0.36403  1.0000
  H   H104      1.0  0.94273  0.82674  0.33975  1.0000
  H   H105      1.0  0.95809  0.66113  0.45134  1.0000
  H   H106      1.0  0.95560  0.72043  0.43649  1.0000
  C   C153      1.0  0.99239  0.87143  0.31045  1.0000
  H   H107      1.0  0.96907  0.88273  0.31784  1.0000
  C   C154      1.0  0.81942  0.02769  0.33658  1.0000
  C   C155      1.0  0.78434  0.03037  0.31896  1.0000
  C   C156      1.0  0.72783  0.00422  0.28369  1.0000
  C   C157      1.0  0.70880  0.03409  0.30449  1.0000
  C   C158      1.0  0.67331  0.03609  0.29208  1.0000
  C   C159      1.0  0.65477  0.00790  0.25964  1.0000
  H   H108      1.0  0.71981  0.05442  0.33541  1.0000
  H   H109      1.0  0.66087  0.05759  0.31304  1.0000
  H   H110      1.0  0.83291  0.04970  0.34637  1.0000
  H   H111      1.0  0.77481  0.05450  0.31524  1.0000
  C   C160      1.0  0.61886  0.00869  0.25971  1.0000
  H   H112      1.0  0.60672  0.03021  0.28127  1.0000
