data_image0
_chemical_formula_structural       C4OC4OH4N2C4OC4OH4N2C4OC4OH4N2C3H2C2HNO2CHC3H2C2HNO2CHC3H2C2HNO2CHC3H2C2HNO2CHC3H2C2HNO2CHC3H2C2HNO2CHC2HC2HN2C2HC2HN2C2HC2HN2C7H3NO2CHC7H3NO2CHC7H3NO2CHC7H3NO2CHC7H3NO2CHC7H3NO2CH
_chemical_formula_sum              "C120 O30 H66 N24"
_cell_length_a       38.9905
_cell_length_b       38.9905
_cell_length_c       14.9455
_cell_angle_alpha    90
_cell_angle_beta     90
_cell_angle_gamma    120

_space_group_name_H-M_alt    "P 1"
_space_group_IT_number       1

loop_
  _space_group_symop_operation_xyz
  'x, y, z'

loop_
  _atom_site_type_symbol
  _atom_site_label
  _atom_site_symmetry_multiplicity
  _atom_site_fract_x
  _atom_site_fract_y
  _atom_site_fract_z
  _atom_site_occupancy
  C   C1        1.0  0.98107  0.49057  0.33820  1.0000
  C   C2        1.0  0.89592  0.44644  0.33541  1.0000
  C   C3        1.0  0.91745  0.42636  0.32905  1.0000
  C   C4        1.0  0.95930  0.44855  0.32773  1.0000
  O   O1        1.0  0.85544  0.42539  0.33623  1.0000
  C   C5        1.0  0.02441  0.51309  0.33807  1.0000
  C   C6        1.0  0.04615  0.55508  0.32718  1.0000
  C   C7        1.0  0.08800  0.57729  0.32828  1.0000
  C   C8        1.0  0.10955  0.55723  0.33481  1.0000
  O   O2        1.0  0.15003  0.57830  0.33543  1.0000
  H   H1        1.0  0.84701  0.42281  0.27339  1.0000
  H   H2        1.0  0.15840  0.58075  0.27256  1.0000
  H   H3        1.0  0.97356  0.43303  0.31731  1.0000
  H   H4        1.0  0.03188  0.57059  0.31662  1.0000
  N   N1        1.0  0.10933  0.61656  0.32431  1.0000
  N   N2        1.0  0.89609  0.38709  0.32546  1.0000
  C   C9        1.0  0.51399  0.49140  0.33822  1.0000
  C   C10       1.0  0.55812  0.45040  0.33534  1.0000
  C   C11       1.0  0.57820  0.49200  0.32900  1.0000
  C   C12       1.0  0.55600  0.51165  0.32772  1.0000
  O   O3        1.0  0.57918  0.43097  0.33613  1.0000
  C   C13       1.0  0.49146  0.51222  0.33814  1.0000
  C   C14       1.0  0.44947  0.49198  0.32726  1.0000
  C   C15       1.0  0.42727  0.51162  0.32843  1.0000
  C   C16       1.0  0.44733  0.55322  0.33502  1.0000
  O   O4        1.0  0.42626  0.57264  0.33572  1.0000
  H   H5        1.0  0.58175  0.42512  0.27328  1.0000
  H   H6        1.0  0.42381  0.57858  0.27286  1.0000
  H   H7        1.0  0.57152  0.54143  0.31730  1.0000
  H   H8        1.0  0.43397  0.46221  0.31668  1.0000
  N   N3        1.0  0.38799  0.49368  0.32447  1.0000
  N   N4        1.0  0.61747  0.50992  0.32538  1.0000
  C   C17       1.0  0.51313  0.02348  0.33812  1.0000
  C   C18       1.0  0.55413  0.10862  0.33490  1.0000
  C   C19       1.0  0.51253  0.08708  0.32841  1.0000
  C   C20       1.0  0.49288  0.04524  0.32729  1.0000
  O   O5        1.0  0.57355  0.14911  0.33551  1.0000
  C   C21       1.0  0.49230  0.98014  0.33821  1.0000
  C   C22       1.0  0.51254  0.95837  0.32768  1.0000
  C   C23       1.0  0.49288  0.91652  0.32898  1.0000
  C   C24       1.0  0.45128  0.89500  0.33538  1.0000
  O   O6        1.0  0.43184  0.85452  0.33620  1.0000
  H   H9        1.0  0.57946  0.15748  0.27264  1.0000
  H   H10       1.0  0.42598  0.84609  0.27336  1.0000
  H   H11       1.0  0.46311  0.03097  0.31672  1.0000
  H   H12       1.0  0.54233  0.97263  0.31728  1.0000
  N   N5        1.0  0.51080  0.89516  0.32540  1.0000
  N   N6        1.0  0.49459  0.10842  0.32441  1.0000
  C   C25       1.0  0.14232  0.46088  0.35279  1.0000
  C   C26       1.0  0.17662  0.42506  0.30822  1.0000
  C   C27       1.0  0.14230  0.42849  0.30991  1.0000
  H   H13       1.0  0.17572  0.40150  0.27583  1.0000
  H   H14       1.0  0.11746  0.40742  0.27772  1.0000
  C   C28       1.0  0.30481  0.45883  0.26377  1.0000
  C   C29       1.0  0.26795  0.45774  0.26457  1.0000
  H   H15       1.0  0.32017  0.46469  0.20484  1.0000
  N   N7        1.0  0.25245  0.46458  0.18505  1.0000
  O   O7        1.0  0.27529  0.49832  0.15311  1.0000
  O   O8        1.0  0.24624  0.43899  0.12646  1.0000
  C   C30       1.0  0.10881  0.46496  0.34998  1.0000
  H   H16       1.0  0.08220  0.44130  0.34115  1.0000
  C   C31       1.0  0.54370  0.68232  0.35284  1.0000
  C   C32       1.0  0.57950  0.75244  0.30817  1.0000
  C   C33       1.0  0.57605  0.71469  0.30979  1.0000
  H   H17       1.0  0.60303  0.77509  0.27568  1.0000
  H   H18       1.0  0.59709  0.71090  0.27752  1.0000
  C   C34       1.0  0.54569  0.84688  0.26413  1.0000
  C   C35       1.0  0.54683  0.81113  0.26483  1.0000
  H   H19       1.0  0.53981  0.85639  0.20526  1.0000
  N   N8        1.0  0.53996  0.78880  0.18527  1.0000
  O   O9        1.0  0.50620  0.77788  0.15344  1.0000
  O   O10       1.0  0.56552  0.80821  0.12663  1.0000
  C   C36       1.0  0.53961  0.64473  0.35008  1.0000
  H   H20       1.0  0.56324  0.64178  0.34068  1.0000
  C   C37       1.0  0.32216  0.86227  0.35264  1.0000
  C   C38       1.0  0.25205  0.82796  0.30797  1.0000
  C   C39       1.0  0.28979  0.86227  0.30967  1.0000
  H   H21       1.0  0.22939  0.82884  0.27551  1.0000
  H   H22       1.0  0.29357  0.88710  0.27741  1.0000
  C   C40       1.0  0.15764  0.69974  0.26363  1.0000
  C   C41       1.0  0.19340  0.73661  0.26442  1.0000
  H   H23       1.0  0.14815  0.68437  0.20472  1.0000
  N   N9        1.0  0.21575  0.75211  0.18490  1.0000
  O   O11       1.0  0.22667  0.72928  0.15300  1.0000
  O   O12       1.0  0.19636  0.75829  0.12629  1.0000
  C   C42       1.0  0.35975  0.89578  0.34985  1.0000
  H   H24       1.0  0.36270  0.92238  0.34086  1.0000
  C   C43       1.0  0.86323  0.54287  0.35250  1.0000
  C   C44       1.0  0.82890  0.57864  0.30772  1.0000
  C   C45       1.0  0.86319  0.57518  0.30930  1.0000
  H   H25       1.0  0.82975  0.60213  0.27510  1.0000
  H   H26       1.0  0.88799  0.59617  0.27686  1.0000
  C   C46       1.0  0.70060  0.54473  0.26401  1.0000
  C   C47       1.0  0.73750  0.54589  0.26467  1.0000
  H   H27       1.0  0.68515  0.53876  0.20519  1.0000
  N   N10       1.0  0.75289  0.53890  0.18515  1.0000
  O   O13       1.0  0.73003  0.50509  0.15359  1.0000
  O   O14       1.0  0.75898  0.56436  0.12632  1.0000
  C   C48       1.0  0.89672  0.53876  0.34962  1.0000
  H   H28       1.0  0.92332  0.56240  0.34062  1.0000
  C   C49       1.0  0.46173  0.32126  0.35245  1.0000
  C   C50       1.0  0.42596  0.25116  0.30771  1.0000
  C   C51       1.0  0.42939  0.28890  0.30937  1.0000
  H   H29       1.0  0.40244  0.22851  0.27518  1.0000
  H   H30       1.0  0.40837  0.29270  0.27702  1.0000
  C   C52       1.0  0.45977  0.15674  0.26364  1.0000
  C   C53       1.0  0.45866  0.19251  0.26438  1.0000
  H   H31       1.0  0.46568  0.14725  0.20476  1.0000
  N   N11       1.0  0.46557  0.21486  0.18485  1.0000
  O   O15       1.0  0.49933  0.22578  0.15307  1.0000
  O   O16       1.0  0.44002  0.19548  0.12616  1.0000
  C   C54       1.0  0.46582  0.35886  0.34961  1.0000
  H   H32       1.0  0.44216  0.36180  0.34072  1.0000
  C   C55       1.0  0.68325  0.14134  0.35267  1.0000
  C   C56       1.0  0.75336  0.17566  0.30799  1.0000
  C   C57       1.0  0.71561  0.14136  0.30956  1.0000
  H   H33       1.0  0.77601  0.17479  0.27543  1.0000
  H   H34       1.0  0.71181  0.11655  0.27720  1.0000
  C   C58       1.0  0.84776  0.30394  0.26413  1.0000
  C   C59       1.0  0.81202  0.26705  0.26480  1.0000
  H   H35       1.0  0.85724  0.31937  0.20528  1.0000
  N   N12       1.0  0.78965  0.25163  0.18528  1.0000
  O   O17       1.0  0.77870  0.27448  0.15364  1.0000
  O   O18       1.0  0.80902  0.24552  0.12650  1.0000
  C   C60       1.0  0.64565  0.10786  0.34978  1.0000
  H   H36       1.0  0.64270  0.08125  0.34095  1.0000
  C   C61       1.0  0.95768  0.50911  0.34866  1.0000
  C   C62       1.0  0.91583  0.48791  0.34535  1.0000
  H   H37       1.0  0.97075  0.53873  0.36038  1.0000
  C   C63       1.0  0.08966  0.51578  0.34515  1.0000
  C   C64       1.0  0.04781  0.49457  0.34866  1.0000
  H   H38       1.0  0.03475  0.46498  0.36071  1.0000
  N   N13       1.0  0.11255  0.49960  0.35077  1.0000
  N   N14       1.0  0.89296  0.50411  0.35079  1.0000
  C   C65       1.0  0.49545  0.44947  0.34865  1.0000
  C   C66       1.0  0.51666  0.42883  0.34531  1.0000
  H   H39       1.0  0.46583  0.43292  0.36039  1.0000
  C   C67       1.0  0.48878  0.57478  0.34535  1.0000
  C   C68       1.0  0.50999  0.55414  0.34880  1.0000
  H   H40       1.0  0.53958  0.57067  0.36088  1.0000
  N   N15       1.0  0.50496  0.61385  0.35109  1.0000
  N   N16       1.0  0.50046  0.38975  0.35073  1.0000
  C   C69       1.0  0.55505  0.04688  0.34870  1.0000
  C   C70       1.0  0.57570  0.08873  0.34519  1.0000
  H   H41       1.0  0.57159  0.03382  0.36066  1.0000
  C   C71       1.0  0.42972  0.91491  0.34537  1.0000
  C   C72       1.0  0.45037  0.95676  0.34868  1.0000
  H   H42       1.0  0.43383  0.96984  0.36050  1.0000
  N   N17       1.0  0.39065  0.89204  0.35088  1.0000
  N   N18       1.0  0.61477  0.11162  0.35073  1.0000
  C   C73       1.0  0.17771  0.48936  0.39536  1.0000
  C   C74       1.0  0.21195  0.48593  0.39382  1.0000
  C   C75       1.0  0.21189  0.45380  0.35003  1.0000
  C   C76       1.0  0.24721  0.45142  0.34671  1.0000
  C   C77       1.0  0.26340  0.44555  0.42663  1.0000
  C   C78       1.0  0.30012  0.44641  0.42353  1.0000
  C   C79       1.0  0.32141  0.45356  0.34285  1.0000
  H   H43       1.0  0.31200  0.44318  0.48191  1.0000
  H   H44       1.0  0.17912  0.51326  0.42729  1.0000
  H   H45       1.0  0.23716  0.50748  0.42390  1.0000
  N   N19       1.0  0.24279  0.43920  0.50865  1.0000
  O   O19       1.0  0.26283  0.46577  0.56486  1.0000
  O   O20       1.0  0.23365  0.40614  0.54204  1.0000
  C   C80       1.0  0.35931  0.45906  0.34381  1.0000
  H   H46       1.0  0.36455  0.43931  0.37344  1.0000
  C   C81       1.0  0.51528  0.68928  0.39562  1.0000
  C   C82       1.0  0.51872  0.72694  0.39410  1.0000
  C   C83       1.0  0.55081  0.75900  0.35016  1.0000
  C   C84       1.0  0.55320  0.79670  0.34690  1.0000
  C   C85       1.0  0.55911  0.81876  0.42685  1.0000
  C   C86       1.0  0.55826  0.85463  0.42384  1.0000
  C   C87       1.0  0.55103  0.86874  0.34323  1.0000
  H   H47       1.0  0.56148  0.86971  0.48227  1.0000
  H   H48       1.0  0.49141  0.66680  0.42764  1.0000
  H   H49       1.0  0.49720  0.73062  0.42428  1.0000
  N   N20       1.0  0.56549  0.80448  0.50883  1.0000
  O   O21       1.0  0.53894  0.79795  0.56510  1.0000
  O   O22       1.0  0.59857  0.82840  0.54216  1.0000
  C   C88       1.0  0.54544  0.90108  0.34440  1.0000
  H   H50       1.0  0.56546  0.92627  0.37285  1.0000
  C   C89       1.0  0.31522  0.82688  0.39530  1.0000
  C   C90       1.0  0.27757  0.79265  0.39374  1.0000
  C   C91       1.0  0.24550  0.79269  0.34986  1.0000
  C   C92       1.0  0.20781  0.75738  0.34655  1.0000
  C   C93       1.0  0.18574  0.74118  0.42646  1.0000
  C   C94       1.0  0.14989  0.70445  0.42337  1.0000
  C   C95       1.0  0.13578  0.68315  0.34270  1.0000
  H   H51       1.0  0.13478  0.69258  0.48175  1.0000
  H   H52       1.0  0.33771  0.82548  0.42730  1.0000
  H   H53       1.0  0.27390  0.76745  0.42389  1.0000
  N   N21       1.0  0.19999  0.76181  0.50848  1.0000
  O   O23       1.0  0.20653  0.74179  0.56472  1.0000
  O   O24       1.0  0.17605  0.77094  0.54182  1.0000
  C   C96       1.0  0.10338  0.64524  0.34369  1.0000
  H   H54       1.0  0.07840  0.63999  0.37335  1.0000
  C   C97       1.0  0.82789  0.51451  0.39548  1.0000
  C   C98       1.0  0.79367  0.51796  0.39402  1.0000
  C   C99       1.0  0.79368  0.55000  0.34992  1.0000
  C   C100      1.0  0.75837  0.55239  0.34668  1.0000
  C   C101      1.0  0.74229  0.55841  0.42660  1.0000
  C   C102      1.0  0.70556  0.55754  0.42363  1.0000
  C   C103      1.0  0.68414  0.55018  0.34309  1.0000
  H   H55       1.0  0.69374  0.56084  0.48204  1.0000
  H   H56       1.0  0.82651  0.49066  0.42760  1.0000
  H   H57       1.0  0.76850  0.49647  0.42435  1.0000
  N   N22       1.0  0.76301  0.56492  0.50851  1.0000
  O   O25       1.0  0.74305  0.53845  0.56499  1.0000
  O   O26       1.0  0.77219  0.59805  0.54159  1.0000
  C   C104      1.0  0.64620  0.54458  0.34433  1.0000
  H   H58       1.0  0.64103  0.56460  0.37275  1.0000
  C   C105      1.0  0.49015  0.31432  0.39523  1.0000
  C   C106      1.0  0.48672  0.27666  0.39371  1.0000
  C   C107      1.0  0.45464  0.24460  0.34974  1.0000
  C   C108      1.0  0.45226  0.20691  0.34646  1.0000
  C   C109      1.0  0.44633  0.18483  0.42638  1.0000
  C   C110      1.0  0.44721  0.14898  0.42334  1.0000
  C   C111      1.0  0.45445  0.13487  0.34273  1.0000
  H   H59       1.0  0.44394  0.13386  0.48173  1.0000
  H   H60       1.0  0.51401  0.33679  0.42729  1.0000
  H   H61       1.0  0.50823  0.27297  0.42395  1.0000
  N   N23       1.0  0.43990  0.19906  0.50835  1.0000
  O   O27       1.0  0.46642  0.20559  0.56469  1.0000
  O   O28       1.0  0.40680  0.17512  0.54158  1.0000
  C   C112      1.0  0.45997  0.10247  0.34377  1.0000
  H   H62       1.0  0.44022  0.07750  0.37342  1.0000
  C   C113      1.0  0.69022  0.17669  0.39556  1.0000
  C   C114      1.0  0.72788  0.21091  0.39410  1.0000
  C   C115      1.0  0.75994  0.21089  0.35009  1.0000
  C   C116      1.0  0.79763  0.24620  0.34683  1.0000
  C   C117      1.0  0.81973  0.26230  0.42676  1.0000
  C   C118      1.0  0.85559  0.29902  0.42376  1.0000
  C   C119      1.0  0.86966  0.32042  0.34319  1.0000
  H   H63       1.0  0.87070  0.31086  0.48217  1.0000
  H   H64       1.0  0.66774  0.17808  0.42760  1.0000
  H   H65       1.0  0.73157  0.23610  0.42435  1.0000
  N   N24       1.0  0.80550  0.24160  0.50869  1.0000
  O   O29       1.0  0.79899  0.26158  0.56511  1.0000
  O   O30       1.0  0.82943  0.23242  0.54184  1.0000
  C   C120      1.0  0.90201  0.35835  0.34440  1.0000
  H   H66       1.0  0.92720  0.36352  0.37281  1.0000
