data_image0
_chemical_formula_structural       C4NOCHC4NOCHC4NOCHC4NOCHC4NOCHC4NOCHC2NOCHC2NOCHC2NOCHC2NOCHC2NOCHC2NOCHC2NOCHC2NOCHC2NOCHC2NOCHC2NOCHC2NOCHC4NOCHC4NOCHC4NOCHC4NOCHC4NOCHC4NOCHC2NOCHC2NOCHC2NOCHC2NOCHC2NOCHC2NOCHC2NOCHC2NOCHC2NOCHC2NOCHC2NOCHC2NOCHCNCNCNCNCNCNCNCNCNCNCNCNCNCNCNCNCNCNCNCNCNCNCNCNCNCNCNCNCNCNCNCNCNCNCNCNCNCNCNCNCNCNCNCNCNCNCNCNCNCNCNCNCNCNCNCNCNCNCNCNCNCNCNCNCNCNCNCNCNCNCNCNC2NOCHC2NOCHC2NOCHC2NOCHC2NOCHC2NOCHC4NOCHC4NOCHC4NOCHC4NOCHC4NOCHC4NOCHC4NOCHC4NOCHC4NOCHC4NOCHC4NOCHC4NOCHC2NOCHC2NOCHC2NOCHC2NOCHC2NOCHC2NOCHC4NOCHC4NOCHC4NOCHC4NOCHC4NOCHC4NOCHC4NOCHC4NOCHC4NOCHC4NOCHC4NOCHC4NOCH
_chemical_formula_sum              "C360 N144 O72 H72"
_cell_length_a       54.1785
_cell_length_b       54.1785
_cell_length_c       14.8651
_cell_angle_alpha    90
_cell_angle_beta     90
_cell_angle_gamma    120

_space_group_name_H-M_alt    "P 1"
_space_group_IT_number       1

loop_
  _space_group_symop_operation_xyz
  'x, y, z'

loop_
  _atom_site_type_symbol
  _atom_site_label
  _atom_site_symmetry_multiplicity
  _atom_site_fract_x
  _atom_site_fract_y
  _atom_site_fract_z
  _atom_site_occupancy
  C   C1        1.0  0.11822  0.39792  0.36295  1.0000
  C   C2        1.0  0.10966  0.41254  0.30275  1.0000
  C   C3        1.0  0.12286  0.44240  0.30326  1.0000
  C   C4        1.0  0.14393  0.45958  0.36687  1.0000
  N   N1        1.0  0.11368  0.44987  0.23083  1.0000
  O   O1        1.0  0.09208  0.40118  0.23043  1.0000
  C   C5        1.0  0.09521  0.42532  0.19032  1.0000
  H   H1        1.0  0.08534  0.42479  0.13123  1.0000
  C   C6        1.0  0.61269  0.72087  0.37528  1.0000
  C   C7        1.0  0.59722  0.69614  0.32145  1.0000
  C   C8        1.0  0.56730  0.68009  0.32392  1.0000
  C   C9        1.0  0.55077  0.68657  0.38265  1.0000
  N   N2        1.0  0.55913  0.66131  0.25695  1.0000
  O   O2        1.0  0.60786  0.68735  0.25343  1.0000
  C   C10       1.0  0.58330  0.66541  0.21839  1.0000
  H   H2        1.0  0.58326  0.65446  0.16243  1.0000
  C   C11       1.0  0.28938  0.89289  0.36786  1.0000
  C   C12       1.0  0.31236  0.90124  0.30697  1.0000
  C   C13       1.0  0.32899  0.88799  0.30709  1.0000
  C   C14       1.0  0.32511  0.86688  0.37055  1.0000
  N   N3        1.0  0.34526  0.89688  0.23379  1.0000
  O   O3        1.0  0.31831  0.91863  0.23427  1.0000
  C   C15       1.0  0.33920  0.91541  0.19361  1.0000
  H   H3        1.0  0.34798  0.92476  0.13341  1.0000
  C   C16       1.0  0.89541  0.61015  0.31822  1.0000
  C   C17       1.0  0.87269  0.59301  0.25924  1.0000
  C   C18       1.0  0.85971  0.56330  0.25993  1.0000
  C   C19       1.0  0.86832  0.54815  0.31777  1.0000
  N   N4        1.0  0.83777  0.55350  0.20309  1.0000
  O   O4        1.0  0.85926  0.60199  0.20138  1.0000
  C   C20       1.0  0.83814  0.57657  0.16883  1.0000
  H   H4        1.0  0.82332  0.57521  0.12365  1.0000
  C   C21       1.0  0.40050  0.28669  0.35929  1.0000
  C   C22       1.0  0.41443  0.30969  0.29806  1.0000
  C   C23       1.0  0.44428  0.32635  0.29522  1.0000
  C   C24       1.0  0.46217  0.32260  0.35624  1.0000
  N   N5        1.0  0.45092  0.34287  0.22268  1.0000
  O   O5        1.0  0.40225  0.31576  0.22768  1.0000
  C   C25       1.0  0.42592  0.33671  0.18532  1.0000
  H   H5        1.0  0.42471  0.34594  0.12684  1.0000
  C   C26       1.0  0.72498  0.11492  0.38266  1.0000
  C   C27       1.0  0.70040  0.10527  0.32774  1.0000
  C   C28       1.0  0.68407  0.11889  0.32782  1.0000
  C   C29       1.0  0.69006  0.14212  0.38507  1.0000
  N   N6        1.0  0.66550  0.10773  0.26050  1.0000
  O   O6        1.0  0.69199  0.08549  0.26089  1.0000
  C   C30       1.0  0.66998  0.08763  0.22406  1.0000
  H   H6        1.0  0.65922  0.07631  0.16842  1.0000
  C   C31       1.0  0.44441  0.14531  0.25049  1.0000
  C   C32       1.0  0.41485  0.13209  0.25977  1.0000
  N   N7        1.0  0.40527  0.14150  0.19315  1.0000
  O   O7        1.0  0.45358  0.16330  0.17842  1.0000
  C   C33       1.0  0.42835  0.15947  0.14551  1.0000
  H   H7        1.0  0.42728  0.17041  0.09112  1.0000
  C   C34       1.0  0.68432  0.56555  0.30375  1.0000
  C   C35       1.0  0.70068  0.59534  0.29530  1.0000
  N   N8        1.0  0.69292  0.60220  0.21859  1.0000
  O   O8        1.0  0.66670  0.55363  0.23188  1.0000
  C   C36       1.0  0.67227  0.57752  0.18434  1.0000
  H   H8        1.0  0.66337  0.57642  0.12285  1.0000
  C   C37       1.0  0.86629  0.30083  0.23777  1.0000
  C   C38       1.0  0.87923  0.28425  0.24812  1.0000
  N   N9        1.0  0.86855  0.26408  0.18512  1.0000
  O   O9        1.0  0.84727  0.29104  0.16840  1.0000
  C   C39       1.0  0.85007  0.26871  0.13849  1.0000
  H   H9        1.0  0.83841  0.25604  0.08613  1.0000
  C   C40       1.0  0.57092  0.86397  0.24374  1.0000
  C   C41       1.0  0.60051  0.87687  0.25214  1.0000
  N   N10       1.0  0.60956  0.86602  0.18831  1.0000
  O   O10       1.0  0.56124  0.84483  0.17469  1.0000
  C   C42       1.0  0.58614  0.84746  0.14315  1.0000
  H   H10       1.0  0.58679  0.83571  0.09043  1.0000
  C   C43       1.0  0.30380  0.44166  0.24996  1.0000
  C   C44       1.0  0.28723  0.41212  0.25871  1.0000
  N   N11       1.0  0.26818  0.40285  0.19224  1.0000
  O   O11       1.0  0.29503  0.45117  0.17863  1.0000
  C   C45       1.0  0.27350  0.42610  0.14522  1.0000
  H   H11       1.0  0.26143  0.42529  0.09134  1.0000
  C   C46       1.0  0.12199  0.68100  0.31531  1.0000
  C   C47       1.0  0.10829  0.69720  0.31487  1.0000
  N   N12       1.0  0.08998  0.68781  0.24647  1.0000
  O   O12       1.0  0.11268  0.66175  0.24680  1.0000
  C   C48       1.0  0.09224  0.66641  0.20959  1.0000
  H   H12       1.0  0.08144  0.65619  0.15261  1.0000
  C   C49       1.0  0.26924  0.50614  0.25542  1.0000
  C   C50       1.0  0.24369  0.50647  0.25812  1.0000
  N   N13       1.0  0.22526  0.48529  0.20562  1.0000
  O   O13       1.0  0.26711  0.48492  0.20092  1.0000
  C   C51       1.0  0.23956  0.47309  0.17222  1.0000
  H   H13       1.0  0.23041  0.45596  0.12990  1.0000
  C   C52       1.0  0.50542  0.76548  0.25867  1.0000
  C   C53       1.0  0.50492  0.73957  0.26475  1.0000
  N   N14       1.0  0.52585  0.74146  0.21284  1.0000
  O   O14       1.0  0.52662  0.78380  0.20258  1.0000
  C   C54       1.0  0.53818  0.76757  0.17652  1.0000
  H   H14       1.0  0.55514  0.77491  0.13371  1.0000
  C   C55       1.0  0.24523  0.74131  0.26893  1.0000
  C   C56       1.0  0.27110  0.76692  0.26920  1.0000
  N   N15       1.0  0.26732  0.78536  0.22008  1.0000
  O   O15       1.0  0.22505  0.74349  0.22025  1.0000
  C   C57       1.0  0.24031  0.77102  0.19093  1.0000
  H   H15       1.0  0.23146  0.78034  0.15313  1.0000
  C   C58       1.0  0.72298  0.46258  0.34167  1.0000
  C   C59       1.0  0.74864  0.46218  0.34069  1.0000
  N   N16       1.0  0.74526  0.44178  0.28361  1.0000
  O   O16       1.0  0.70337  0.44246  0.28550  1.0000
  C   C60       1.0  0.71828  0.42996  0.25422  1.0000
  H   H16       1.0  0.71024  0.41434  0.20640  1.0000
  C   C61       1.0  0.50938  0.24418  0.24665  1.0000
  C   C62       1.0  0.50958  0.27001  0.24729  1.0000
  N   N17       1.0  0.48832  0.26685  0.19439  1.0000
  O   O17       1.0  0.48816  0.22472  0.19294  1.0000
  C   C63       1.0  0.47619  0.24016  0.16269  1.0000
  H   H17       1.0  0.45904  0.23186  0.12046  1.0000
  C   C64       1.0  0.76772  0.26667  0.25697  1.0000
  C   C65       1.0  0.74219  0.24094  0.26528  1.0000
  N   N18       1.0  0.74433  0.22183  0.21449  1.0000
  O   O18       1.0  0.78603  0.26387  0.20060  1.0000
  C   C66       1.0  0.77022  0.23584  0.17672  1.0000
  H   H18       1.0  0.77767  0.22623  0.13430  1.0000
  C   C67       1.0  0.17775  0.61709  0.37092  1.0000
  C   C68       1.0  0.15512  0.59220  0.33163  1.0000
  C   C69       1.0  0.15517  0.56628  0.33066  1.0000
  C   C70       1.0  0.17717  0.56302  0.37021  1.0000
  N   N19       1.0  0.13327  0.54829  0.27987  1.0000
  O   O19       1.0  0.13335  0.59058  0.28133  1.0000
  C   C71       1.0  0.12034  0.56274  0.25393  1.0000
  H   H19       1.0  0.10336  0.55427  0.21095  1.0000
  C   C72       1.0  0.39423  0.56212  0.32685  1.0000
  C   C73       1.0  0.39970  0.58537  0.27035  1.0000
  C   C74       1.0  0.42553  0.61106  0.27348  1.0000
  C   C75       1.0  0.44813  0.61583  0.33220  1.0000
  N   N20       1.0  0.42347  0.62847  0.21444  1.0000
  O   O20       1.0  0.38139  0.58653  0.20970  1.0000
  C   C76       1.0  0.39750  0.61362  0.17765  1.0000
  H   H20       1.0  0.39021  0.62200  0.13002  1.0000
  C   C77       1.0  0.45069  0.83534  0.36063  1.0000
  C   C78       1.0  0.44727  0.85737  0.32175  1.0000
  C   C79       1.0  0.42094  0.85664  0.32328  1.0000
  C   C80       1.0  0.39622  0.83447  0.36477  1.0000
  N   N21       1.0  0.42395  0.87838  0.27337  1.0000
  O   O21       1.0  0.46666  0.87932  0.27025  1.0000
  C   C81       1.0  0.45108  0.89171  0.24479  1.0000
  H   H21       1.0  0.45903  0.90890  0.20275  1.0000
  C   C82       1.0  0.83783  0.39183  0.35628  1.0000
  C   C83       1.0  0.85834  0.41679  0.31124  1.0000
  C   C84       1.0  0.85775  0.44242  0.31600  1.0000
  C   C85       1.0  0.83728  0.44540  0.36696  1.0000
  N   N22       1.0  0.87766  0.46060  0.25968  1.0000
  O   O22       1.0  0.87831  0.41875  0.25158  1.0000
  C   C86       1.0  0.88993  0.44652  0.22468  1.0000
  H   H22       1.0  0.90535  0.45523  0.17635  1.0000
  C   C87       1.0  0.61936  0.44683  0.36495  1.0000
  C   C88       1.0  0.59589  0.44449  0.31555  1.0000
  C   C89       1.0  0.56991  0.41861  0.31027  1.0000
  C   C90       1.0  0.56514  0.39352  0.35501  1.0000
  N   N23       1.0  0.55357  0.42250  0.25174  1.0000
  O   O23       1.0  0.59592  0.46458  0.26046  1.0000
  C   C91       1.0  0.56900  0.44977  0.22518  1.0000
  H   H23       1.0  0.56188  0.45828  0.17748  1.0000
  C   C92       1.0  0.56541  0.17538  0.32716  1.0000
  C   C93       1.0  0.58897  0.19298  0.27142  1.0000
  C   C94       1.0  0.61439  0.19227  0.27480  1.0000
  C   C95       1.0  0.61875  0.17407  0.33325  1.0000
  N   N24       1.0  0.63211  0.21167  0.21607  1.0000
  O   O24       1.0  0.59064  0.21269  0.21084  1.0000
  C   C96       1.0  0.61772  0.22329  0.17927  1.0000
  H   H24       1.0  0.62642  0.23899  0.13181  1.0000
  C   C97       1.0  0.02426  0.31257  0.28010  1.0000
  C   C98       1.0  0.99443  0.29793  0.27992  1.0000
  N   N25       1.0  0.98665  0.31347  0.23060  1.0000
  O   O25       1.0  0.03515  0.33717  0.23132  1.0000
  C   C99       1.0  0.01080  0.33625  0.20258  1.0000
  H   H25       1.0  0.01098  0.35186  0.16363  1.0000
  C   C100      1.0  0.69710  0.71172  0.27500  1.0000
  C   C101      1.0  0.71220  0.69695  0.27352  1.0000
  N   N26       1.0  0.69563  0.67227  0.23179  1.0000
  O   O26       1.0  0.67114  0.69631  0.23447  1.0000
  C   C102      1.0  0.67177  0.67243  0.20917  1.0000
  H   H26       1.0  0.65521  0.65581  0.17659  1.0000
  C   C103      1.0  0.29861  0.98766  0.29433  1.0000
  C   C104      1.0  0.31377  0.01750  0.29574  1.0000
  N   N27       1.0  0.33728  0.02562  0.24708  1.0000
  O   O27       1.0  0.31261  0.97712  0.24536  1.0000
  C   C105      1.0  0.33609  0.00165  0.21799  1.0000
  H   H27       1.0  0.35171  0.00173  0.17935  1.0000
  C   C106      1.0  0.99038  0.73318  0.32689  1.0000
  C   C107      1.0  0.02046  0.74777  0.32910  1.0000
  N   N28       1.0  0.02939  0.77149  0.28121  1.0000
  O   O28       1.0  0.98059  0.74765  0.27743  1.0000
  C   C108      1.0  0.00570  0.77128  0.25357  1.0000
  H   H28       1.0  0.00638  0.78675  0.21265  1.0000
  C   C109      1.0  0.31491  0.29585  0.29039  1.0000
  C   C110      1.0  0.30022  0.31099  0.29218  1.0000
  N   N29       1.0  0.31561  0.33457  0.24384  1.0000
  O   O29       1.0  0.33942  0.30991  0.24133  1.0000
  C   C111      1.0  0.33841  0.33346  0.21461  1.0000
  H   H29       1.0  0.35390  0.34909  0.17587  1.0000
  C   C112      1.0  0.71713  0.02218  0.28577  1.0000
  C   C113      1.0  0.70213  0.99233  0.28369  1.0000
  N   N30       1.0  0.67764  0.98469  0.24127  1.0000
  O   O30       1.0  0.70208  0.03310  0.24508  1.0000
  C   C114      1.0  0.67813  0.00886  0.21894  1.0000
  H   H30       1.0  0.66175  0.00911  0.18593  1.0000
  C   C115      1.0  0.18646  0.33563  0.26512  1.0000
  C   C116      1.0  0.16092  0.33621  0.26815  1.0000
  N   N31       1.0  0.16149  0.35238  0.19970  1.0000
  O   O31       1.0  0.20317  0.35153  0.19524  1.0000
  C   C117      1.0  0.18618  0.36060  0.15683  1.0000
  H   H31       1.0  0.19258  0.37409  0.10293  1.0000
  C   C118      1.0  0.70483  0.86634  0.30177  1.0000
  C   C119      1.0  0.70376  0.83978  0.30476  1.0000
  N   N32       1.0  0.71765  0.83858  0.23259  1.0000
  O   O32       1.0  0.71924  0.88161  0.22795  1.0000
  C   C120      1.0  0.72735  0.86367  0.19045  1.0000
  H   H32       1.0  0.73776  0.86797  0.13025  1.0000
  C   C121      1.0  0.15873  0.82391  0.27467  1.0000
  C   C122      1.0  0.18493  0.84943  0.27682  1.0000
  N   N33       1.0  0.20067  0.84814  0.21006  1.0000
  O   O33       1.0  0.15802  0.80652  0.20712  1.0000
  C   C123      1.0  0.18429  0.82302  0.16934  1.0000
  H   H33       1.0  0.19132  0.81627  0.11619  1.0000
  C   C124      1.0  0.82588  0.67159  0.25002  1.0000
  C   C125      1.0  0.85147  0.67103  0.25015  1.0000
  N   N34       1.0  0.84968  0.65387  0.18314  1.0000
  O   O34       1.0  0.80790  0.65455  0.18416  1.0000
  C   C126      1.0  0.82418  0.64479  0.14474  1.0000
  H   H34       1.0  0.81706  0.63085  0.09200  1.0000
  C   C127      1.0  0.33824  0.15608  0.26808  1.0000
  C   C128      1.0  0.33871  0.18217  0.27092  1.0000
  N   N35       1.0  0.35479  0.19772  0.20227  1.0000
  O   O35       1.0  0.35411  0.15527  0.19812  1.0000
  C   C129      1.0  0.36307  0.18128  0.15949  1.0000
  H   H35       1.0  0.37650  0.18835  0.10545  1.0000
  C   C130      1.0  0.87028  0.17027  0.31004  1.0000
  C   C131      1.0  0.84417  0.14437  0.31463  1.0000
  N   N36       1.0  0.84319  0.12911  0.24316  1.0000
  O   O36       1.0  0.88552  0.17123  0.23601  1.0000
  C   C132      1.0  0.86802  0.14484  0.19995  1.0000
  H   H36       1.0  0.87236  0.13865  0.13994  1.0000
  C   C133      1.0  0.16340  0.48887  0.35190  1.0000
  N   N37       1.0  0.15839  0.51104  0.36303  1.0000
  C   C134      1.0  0.18027  0.53869  0.35707  1.0000
  N   N38       1.0  0.20705  0.54346  0.33984  1.0000
  C   C135      1.0  0.21246  0.52190  0.32627  1.0000
  N   N39       1.0  0.19038  0.49502  0.33414  1.0000
  C   C136      1.0  0.52146  0.67700  0.36731  1.0000
  N   N40       1.0  0.49950  0.64948  0.35988  1.0000
  C   C137      1.0  0.47224  0.64370  0.34216  1.0000
  N   N41       1.0  0.46770  0.66614  0.33155  1.0000
  C   C138      1.0  0.48906  0.69349  0.33633  1.0000
  N   N42       1.0  0.51550  0.69819  0.35362  1.0000
  C   C139      1.0  0.33505  0.84746  0.35550  1.0000
  N   N43       1.0  0.36244  0.85269  0.36243  1.0000
  C   C140      1.0  0.36837  0.83091  0.35549  1.0000
  N   N44       1.0  0.34620  0.80396  0.34087  1.0000
  C   C141      1.0  0.31897  0.79829  0.33090  1.0000
  N   N45       1.0  0.31418  0.82034  0.33995  1.0000
  C   C142      1.0  0.84907  0.51893  0.33682  1.0000
  N   N46       1.0  0.85473  0.49699  0.34256  1.0000
  C   C143      1.0  0.83353  0.46970  0.36201  1.0000
  N   N47       1.0  0.80662  0.46514  0.37487  1.0000
  C   C144      1.0  0.80053  0.48645  0.37199  1.0000
  N   N48       1.0  0.82202  0.51284  0.35292  1.0000
  C   C145      1.0  0.49137  0.33265  0.33845  1.0000
  N   N49       1.0  0.51336  0.36001  0.34797  1.0000
  C   C146      1.0  0.54106  0.36608  0.34022  1.0000
  N   N50       1.0  0.54615  0.34422  0.32421  1.0000
  C   C147      1.0  0.52476  0.31706  0.31230  1.0000
  N   N51       1.0  0.49779  0.31196  0.32134  1.0000
  C   C148      1.0  0.68007  0.16157  0.36842  1.0000
  N   N52       1.0  0.65247  0.15599  0.36122  1.0000
  C   C149      1.0  0.64655  0.17743  0.34354  1.0000
  N   N53       1.0  0.66900  0.20440  0.33323  1.0000
  C   C150      1.0  0.69637  0.21051  0.33798  1.0000
  N   N54       1.0  0.70115  0.18880  0.35485  1.0000
  C   C151      1.0  0.49123  0.16218  0.32033  1.0000
  N   N55       1.0  0.51346  0.15709  0.32921  1.0000
  C   C152      1.0  0.54114  0.17914  0.32880  1.0000
  N   N56       1.0  0.54588  0.20630  0.32058  1.0000
  C   C153      1.0  0.52438  0.21208  0.31220  1.0000
  N   N57       1.0  0.49757  0.18963  0.31204  1.0000
  C   C154      1.0  0.68011  0.52136  0.37022  1.0000
  N   N58       1.0  0.65278  0.49903  0.36274  1.0000
  C   C155      1.0  0.64723  0.47136  0.36398  1.0000
  N   N59       1.0  0.66976  0.46681  0.37098  1.0000
  C   C156      1.0  0.69702  0.48835  0.37792  1.0000
  N   N60       1.0  0.70131  0.51512  0.37751  1.0000
  C   C157      1.0  0.85084  0.33212  0.30673  1.0000
  N   N61       1.0  0.85602  0.35892  0.32703  1.0000
  C   C158      1.0  0.83403  0.36426  0.33923  1.0000
  N   N62       1.0  0.80676  0.34202  0.33182  1.0000
  C   C159      1.0  0.80079  0.31519  0.31160  1.0000
  N   N63       1.0  0.82328  0.31116  0.30089  1.0000
  C   C160      1.0  0.52435  0.84901  0.31436  1.0000
  N   N64       1.0  0.50257  0.85412  0.33420  1.0000
  C   C161      1.0  0.47505  0.83214  0.34524  1.0000
  N   N65       1.0  0.47015  0.80498  0.33639  1.0000
  C   C162      1.0  0.49099  0.79897  0.31676  1.0000
  N   N66       1.0  0.51758  0.82140  0.30733  1.0000
  C   C163      1.0  0.33357  0.48803  0.32179  1.0000
  N   N67       1.0  0.36091  0.51024  0.32914  1.0000
  C   C164      1.0  0.36637  0.53784  0.33008  1.0000
  N   N68       1.0  0.34391  0.54256  0.32455  1.0000
  C   C165      1.0  0.31664  0.52102  0.31769  1.0000
  N   N69       1.0  0.31232  0.49423  0.31617  1.0000
  C   C166      1.0  0.16467  0.67799  0.35925  1.0000
  N   N70       1.0  0.15946  0.65065  0.36706  1.0000
  C   C167      1.0  0.18124  0.64478  0.36012  1.0000
  N   N71       1.0  0.20813  0.66684  0.34449  1.0000
  C   C168      1.0  0.21378  0.69401  0.33359  1.0000
  N   N72       1.0  0.19175  0.69885  0.34265  1.0000
  C   C169      1.0  0.11848  0.33025  0.34809  1.0000
  N   N73       1.0  0.08983  0.31135  0.34017  1.0000
  C   C170      1.0  0.07031  0.32048  0.33929  1.0000
  N   N74       1.0  0.08046  0.34905  0.34648  1.0000
  C   C171      1.0  0.10849  0.36837  0.35568  1.0000
  N   N75       1.0  0.12707  0.35846  0.35533  1.0000
  C   C172      1.0  0.68051  0.78900  0.36071  1.0000
  N   N76       1.0  0.69903  0.77933  0.34135  1.0000
  C   C173      1.0  0.68990  0.75074  0.33269  1.0000
  N   N77       1.0  0.66146  0.73214  0.34396  1.0000
  C   C174      1.0  0.64230  0.74048  0.36354  1.0000
  N   N78       1.0  0.65258  0.76892  0.37125  1.0000
  C   C175      1.0  0.22141  0.89269  0.35404  1.0000
  N   N79       1.0  0.23123  0.92146  0.34901  1.0000
  C   C176      1.0  0.25990  0.94107  0.34885  1.0000
  N   N80       1.0  0.27827  0.93080  0.35451  1.0000
  C   C177      1.0  0.26958  0.90270  0.36126  1.0000
  N   N81       1.0  0.24110  0.88414  0.36014  1.0000
  C   C178      1.0  0.89560  0.67835  0.32470  1.0000
  N   N82       1.0  0.92394  0.69697  0.34181  1.0000
  C   C179      1.0  0.94332  0.68776  0.35166  1.0000
  N   N83       1.0  0.93319  0.65917  0.34382  1.0000
  C   C180      1.0  0.90555  0.63991  0.32652  1.0000
  N   N84       1.0  0.88749  0.65027  0.31744  1.0000
  C   C181      1.0  0.33268  0.21870  0.35053  1.0000
  N   N85       1.0  0.31371  0.22848  0.34555  1.0000
  C   C182      1.0  0.32280  0.25715  0.34463  1.0000
  N   N86       1.0  0.35145  0.27552  0.34897  1.0000
  C   C183      1.0  0.37087  0.26685  0.35529  1.0000
  N   N87       1.0  0.36095  0.23837  0.35503  1.0000
  C   C184      1.0  0.79367  0.11614  0.37186  1.0000
  N   N88       1.0  0.78451  0.08803  0.35277  1.0000
  C   C185      1.0  0.75603  0.06820  0.34381  1.0000
  N   N89       1.0  0.73715  0.07777  0.35426  1.0000
  C   C186      1.0  0.74492  0.10517  0.37325  1.0000
  N   N90       1.0  0.77327  0.12362  0.38126  1.0000
  C   C187      1.0  0.33219  0.11305  0.34500  1.0000
  N   N91       1.0  0.31330  0.08422  0.34858  1.0000
  C   C188      1.0  0.32249  0.06468  0.34893  1.0000
  N   N92       1.0  0.35122  0.07510  0.34684  1.0000
  C   C189      1.0  0.37056  0.10328  0.34396  1.0000
  N   N93       1.0  0.36042  0.12161  0.34099  1.0000
  C   C190      1.0  0.79059  0.67977  0.32806  1.0000
  N   N94       1.0  0.78072  0.69864  0.32019  1.0000
  C   C191      1.0  0.75204  0.68961  0.32157  1.0000
  N   N95       1.0  0.73369  0.66111  0.33193  1.0000
  C   C192      1.0  0.74249  0.64187  0.34122  1.0000
  N   N96       1.0  0.77093  0.65171  0.33872  1.0000
  C   C193      1.0  0.89886  0.22199  0.35317  1.0000
  N   N97       1.0  0.92757  0.23158  0.34784  1.0000
  C   C194      1.0  0.94712  0.25992  0.33449  1.0000
  N   N98       1.0  0.93684  0.27825  0.32775  1.0000
  C   C195      1.0  0.90878  0.26972  0.33206  1.0000
  N   N99       1.0  0.89026  0.24155  0.34389  1.0000
  C   C196      1.0  0.68298  0.89600  0.34819  1.0000
  N   N100      1.0  0.70239  0.92467  0.34163  1.0000
  C   C197      1.0  0.69394  0.94462  0.33030  1.0000
  N   N101      1.0  0.66526  0.93453  0.32703  1.0000
  C   C198      1.0  0.64538  0.90659  0.33241  1.0000
  N   N102      1.0  0.65485  0.88787  0.34195  1.0000
  C   C199      1.0  0.22330  0.32944  0.34214  1.0000
  N   N103      1.0  0.23313  0.31047  0.34542  1.0000
  C   C200      1.0  0.26183  0.31961  0.34614  1.0000
  N   N104      1.0  0.28021  0.34831  0.34473  1.0000
  C   C201      1.0  0.27144  0.36768  0.34211  1.0000
  N   N105      1.0  0.24301  0.35767  0.33873  1.0000
  C   C202      1.0  0.11531  0.78786  0.35184  1.0000
  N   N106      1.0  0.08646  0.77781  0.35596  1.0000
  C   C203      1.0  0.06703  0.74916  0.36398  1.0000
  N   N107      1.0  0.07769  0.73105  0.36675  1.0000
  C   C204      1.0  0.10590  0.74000  0.36396  1.0000
  N   N108      1.0  0.12412  0.76841  0.35701  1.0000
  C   C205      1.0  0.15116  0.44464  0.43020  1.0000
  C   C206      1.0  0.13904  0.41503  0.42710  1.0000
  N   N109      1.0  0.15180  0.40793  0.49028  1.0000
  O   O37       1.0  0.17207  0.45638  0.49375  1.0000
  C   C207      1.0  0.17077  0.43250  0.52942  1.0000
  H   H37       1.0  0.18399  0.43339  0.57982  1.0000
  C   C208      1.0  0.56648  0.70993  0.44142  1.0000
  C   C209      1.0  0.59615  0.72658  0.43647  1.0000
  N   N110      1.0  0.60396  0.74792  0.49466  1.0000
  O   O38       1.0  0.55550  0.72110  0.50093  1.0000
  C   C210      1.0  0.57983  0.74404  0.53255  1.0000
  H   H38       1.0  0.57958  0.75778  0.57908  1.0000
  C   C211      1.0  0.30319  0.85989  0.43464  1.0000
  C   C212      1.0  0.28578  0.87211  0.43205  1.0000
  N   N111      1.0  0.26611  0.85954  0.49590  1.0000
  O   O39       1.0  0.29407  0.83902  0.49836  1.0000
  C   C213      1.0  0.27182  0.84067  0.53523  1.0000
  H   H39       1.0  0.25933  0.82725  0.58501  1.0000
  C   C214      1.0  0.89212  0.56532  0.37303  1.0000
  C   C215      1.0  0.90508  0.59520  0.37279  1.0000
  N   N112      1.0  0.92440  0.60472  0.43839  1.0000
  O   O40       1.0  0.90285  0.55607  0.43939  1.0000
  C   C216      1.0  0.92346  0.58151  0.47409  1.0000
  H   H40       1.0  0.93522  0.58262  0.52922  1.0000
  C   C217      1.0  0.44795  0.30063  0.42075  1.0000
  C   C218      1.0  0.41832  0.28316  0.42101  1.0000
  N   N113      1.0  0.41193  0.26356  0.48461  1.0000
  O   O41       1.0  0.46040  0.29173  0.48270  1.0000
  C   C219      1.0  0.43693  0.26930  0.52077  1.0000
  H   H41       1.0  0.43839  0.25718  0.57083  1.0000
  C   C220      1.0  0.71331  0.15021  0.44478  1.0000
  C   C221      1.0  0.73021  0.13740  0.44226  1.0000
  N   N114      1.0  0.75128  0.15129  0.50108  1.0000
  O   O42       1.0  0.72406  0.17254  0.50356  1.0000
  C   C222      1.0  0.74702  0.17154  0.53705  1.0000
  H   H42       1.0  0.76047  0.18574  0.58366  1.0000
  C   C223      1.0  0.40001  0.11343  0.33152  1.0000
  C   C224      1.0  0.41680  0.10771  0.39182  1.0000
  C   C225      1.0  0.44667  0.12200  0.38467  1.0000
  C   C226      1.0  0.46167  0.14176  0.31516  1.0000
  N   N115      1.0  0.45638  0.11548  0.45785  1.0000
  O   O43       1.0  0.40770  0.09210  0.46887  1.0000
  C   C227      1.0  0.43313  0.09725  0.50469  1.0000
  H   H43       1.0  0.43445  0.08962  0.56624  1.0000
  C   C228      1.0  0.72308  0.61255  0.35534  1.0000
  C   C229      1.0  0.72702  0.59819  0.42827  1.0000
  C   C230      1.0  0.71064  0.56861  0.43691  1.0000
  C   C231      1.0  0.68932  0.55096  0.37409  1.0000
  N   N116      1.0  0.72047  0.56165  0.50901  1.0000
  O   O44       1.0  0.74720  0.60996  0.49395  1.0000
  C   C232      1.0  0.74160  0.58621  0.54194  1.0000
  H   H44       1.0  0.75322  0.58701  0.59707  1.0000
  C   C233      1.0  0.89878  0.28900  0.31783  1.0000
  C   C234      1.0  0.90562  0.31245  0.37508  1.0000
  C   C235      1.0  0.89154  0.32819  0.36726  1.0000
  C   C236      1.0  0.87106  0.32277  0.29957  1.0000
  N   N117      1.0  0.89921  0.34553  0.43804  1.0000
  O   O45       1.0  0.92221  0.31989  0.45016  1.0000
  C   C237      1.0  0.91770  0.34077  0.48438  1.0000
  H   H45       1.0  0.92648  0.35084  0.54372  1.0000
  C   C238      1.0  0.61594  0.89674  0.32049  1.0000
  C   C239      1.0  0.59967  0.90388  0.37843  1.0000
  C   C240      1.0  0.56978  0.88996  0.37242  1.0000
  C   C241      1.0  0.55411  0.86902  0.30640  1.0000
  N   N118      1.0  0.56072  0.89837  0.44294  1.0000
  O   O46       1.0  0.60943  0.92114  0.45192  1.0000
  C   C242      1.0  0.58434  0.91721  0.48702  1.0000
  H   H46       1.0  0.58353  0.92637  0.54613  1.0000
  C   C243      1.0  0.29089  0.39707  0.33012  1.0000
  C   C244      1.0  0.31343  0.41353  0.39064  1.0000
  C   C245      1.0  0.32919  0.44339  0.38418  1.0000
  C   C246      1.0  0.32460  0.45860  0.31502  1.0000
  N   N119      1.0  0.34532  0.45285  0.45764  1.0000
  O   O47       1.0  0.31973  0.40416  0.46753  1.0000
  C   C247      1.0  0.34008  0.42945  0.50396  1.0000
  H   H47       1.0  0.34889  0.43056  0.56561  1.0000
  C   C248      1.0  0.11654  0.72097  0.37213  1.0000
  C   C249      1.0  0.13871  0.72677  0.43352  1.0000
  C   C250      1.0  0.15238  0.71071  0.43372  1.0000
  C   C251      1.0  0.14502  0.68761  0.37417  1.0000
  N   N120      1.0  0.17338  0.72265  0.49388  1.0000
  O   O48       1.0  0.15080  0.74870  0.49354  1.0000
  C   C252      1.0  0.17179  0.74463  0.52887  1.0000
  H   H48       1.0  0.18573  0.75783  0.57649  1.0000
  C   C253      1.0  0.23996  0.52582  0.31223  1.0000
  C   C254      1.0  0.26421  0.54617  0.36028  1.0000
  C   C255      1.0  0.28969  0.54541  0.35914  1.0000
  C   C256      1.0  0.29291  0.52505  0.30863  1.0000
  N   N121      1.0  0.30716  0.56475  0.41820  1.0000
  O   O49       1.0  0.26540  0.56564  0.42071  1.0000
  C   C257      1.0  0.29271  0.57681  0.45171  1.0000
  H   H49       1.0  0.30087  0.59198  0.50094  1.0000
  C   C258      1.0  0.48546  0.71710  0.32038  1.0000
  C   C259      1.0  0.46532  0.72161  0.36705  1.0000
  C   C260      1.0  0.46631  0.74793  0.36274  1.0000
  C   C261      1.0  0.48675  0.77100  0.31051  1.0000
  N   N122      1.0  0.44698  0.74663  0.42082  1.0000
  O   O50       1.0  0.44569  0.70383  0.42796  1.0000
  C   C262      1.0  0.43462  0.72034  0.45625  1.0000
  H   H50       1.0  0.41962  0.71394  0.50586  1.0000
  C   C263      1.0  0.29512  0.77073  0.31851  1.0000
  C   C264      1.0  0.29197  0.74643  0.36453  1.0000
  C   C265      1.0  0.26578  0.72088  0.36581  1.0000
  C   C266      1.0  0.24141  0.71760  0.32004  1.0000
  N   N123      1.0  0.26846  0.70358  0.42356  1.0000
  O   O51       1.0  0.31105  0.74537  0.42179  1.0000
  C   C267      1.0  0.29545  0.71805  0.45320  1.0000
  H   H51       1.0  0.30294  0.71018  0.50184  1.0000
  C   C268      1.0  0.77322  0.48279  0.38655  1.0000
  C   C269      1.0  0.77030  0.50318  0.43764  1.0000
  C   C270      1.0  0.74492  0.50384  0.43747  1.0000
  C   C271      1.0  0.72070  0.48426  0.38761  1.0000
  N   N124      1.0  0.74939  0.52599  0.48811  1.0000
  O   O52       1.0  0.79093  0.52497  0.48693  1.0000
  C   C272      1.0  0.77637  0.53787  0.51715  1.0000
  H   H52       1.0  0.78553  0.55561  0.55687  1.0000
  C   C273      1.0  0.52887  0.29349  0.30017  1.0000
  C   C274      1.0  0.54924  0.28993  0.34951  1.0000
  C   C275      1.0  0.54859  0.26373  0.35045  1.0000
  C   C276      1.0  0.52836  0.23980  0.30089  1.0000
  N   N125      1.0  0.56787  0.26601  0.41044  1.0000
  O   O53       1.0  0.56857  0.30859  0.40950  1.0000
  C   C277      1.0  0.57978  0.29270  0.44245  1.0000
  H   H53       1.0  0.59487  0.30002  0.49197  1.0000
  C   C278      1.0  0.71979  0.23782  0.32141  1.0000
  C   C279      1.0  0.72392  0.26265  0.36609  1.0000
  C   C280      1.0  0.74990  0.28830  0.35973  1.0000
  C   C281      1.0  0.77296  0.29110  0.30707  1.0000
  N   N126      1.0  0.74832  0.30653  0.41626  1.0000
  O   O54       1.0  0.70607  0.26451  0.42666  1.0000
  C   C282      1.0  0.72219  0.29237  0.45279  1.0000
  H   H54       1.0  0.71564  0.30111  0.50152  1.0000
  C   C283      1.0  0.19873  0.58748  0.41462  1.0000
  C   C284      1.0  0.19898  0.61339  0.41413  1.0000
  N   N127      1.0  0.22247  0.63215  0.45759  1.0000
  O   O55       1.0  0.22205  0.58987  0.45783  1.0000
  C   C285      1.0  0.23548  0.61781  0.48346  1.0000
  H   H55       1.0  0.25445  0.62728  0.51707  1.0000
  C   C286      1.0  0.44339  0.59197  0.38461  1.0000
  C   C287      1.0  0.41729  0.56617  0.38196  1.0000
  N   N128      1.0  0.41863  0.54919  0.44403  1.0000
  O   O56       1.0  0.46107  0.59127  0.44835  1.0000
  C   C288      1.0  0.44474  0.56410  0.48038  1.0000
  H   H56       1.0  0.45121  0.55641  0.53250  1.0000
  C   C289      1.0  0.40015  0.81343  0.40833  1.0000
  C   C290      1.0  0.42623  0.81394  0.40586  1.0000
  N   N129      1.0  0.42231  0.79075  0.44948  1.0000
  O   O57       1.0  0.37992  0.79005  0.45317  1.0000
  C   C291      1.0  0.39513  0.77721  0.47713  1.0000
  H   H57       1.0  0.38634  0.75847  0.51197  1.0000
  C   C292      1.0  0.81814  0.42089  0.41719  1.0000
  C   C293      1.0  0.81833  0.39524  0.41087  1.0000
  N   N130      1.0  0.79700  0.37626  0.46179  1.0000
  O   O58       1.0  0.79671  0.41805  0.47233  1.0000
  C   C294      1.0  0.78473  0.39017  0.49754  1.0000
  H   H58       1.0  0.76751  0.38056  0.53939  1.0000
  C   C295      1.0  0.58803  0.39637  0.40847  1.0000
  C   C296      1.0  0.61396  0.42195  0.41281  1.0000
  N   N131      1.0  0.63087  0.41720  0.46653  1.0000
  O   O59       1.0  0.58858  0.37551  0.45834  1.0000
  C   C297      1.0  0.61548  0.38997  0.49300  1.0000
  H   H59       1.0  0.62353  0.38056  0.53392  1.0000
  C   C298      1.0  0.59463  0.15525  0.38524  1.0000
  C   C299      1.0  0.56907  0.15607  0.38215  1.0000
  N   N132      1.0  0.55177  0.13776  0.44373  1.0000
  O   O60       1.0  0.59345  0.13660  0.44880  1.0000
  C   C300      1.0  0.56626  0.12613  0.48028  1.0000
  H   H60       1.0  0.55825  0.11188  0.53207  1.0000
  C   C301      1.0  0.97748  0.27201  0.32721  1.0000
  C   C302      1.0  0.99329  0.26109  0.37106  1.0000
  C   C303      1.0  0.02334  0.27604  0.37216  1.0000
  C   C304      1.0  0.04012  0.30261  0.32853  1.0000
  N   N133      1.0  0.03135  0.26157  0.42544  1.0000
  O   O61       1.0  0.98252  0.23741  0.42385  1.0000
  C   C305      1.0  0.00710  0.23877  0.45345  1.0000
  H   H61       1.0  0.00700  0.22419  0.49720  1.0000
  C   C306      1.0  0.73951  0.70747  0.31305  1.0000
  C   C307      1.0  0.75116  0.73515  0.35073  1.0000
  C   C308      1.0  0.73575  0.74980  0.35353  1.0000
  C   C309      1.0  0.70789  0.73862  0.31769  1.0000
  N   N134      1.0  0.75136  0.77348  0.40087  1.0000
  O   O62       1.0  0.77620  0.74953  0.39647  1.0000
  C   C310      1.0  0.77521  0.77319  0.42333  1.0000
  H   H62       1.0  0.79064  0.78859  0.46280  1.0000
  C   C311      1.0  0.30447  0.03422  0.34269  1.0000
  C   C312      1.0  0.27737  0.01813  0.38421  1.0000
  C   C313      1.0  0.26227  0.98805  0.38371  1.0000
  C   C314      1.0  0.27243  0.97145  0.34077  1.0000
  N   N135      1.0  0.23937  0.97979  0.43518  1.0000
  O   O63       1.0  0.26397  0.02864  0.43581  1.0000
  C   C315      1.0  0.24050  0.00390  0.46321  1.0000
  H   H63       1.0  0.22578  0.00378  0.50636  1.0000
  C   C316      1.0  0.03648  0.73654  0.36973  1.0000
  C   C317      1.0  0.01952  0.70972  0.41235  1.0000
  C   C318      1.0  0.98965  0.69511  0.40934  1.0000
  C   C319      1.0  0.97358  0.70563  0.36492  1.0000
  N   N136      1.0  0.98072  0.67058  0.45299  1.0000
  O   O64       1.0  0.02917  0.69435  0.45808  1.0000
  C   C320      1.0  0.00421  0.67063  0.48109  1.0000
  H   H64       1.0  0.00350  0.65412  0.51643  1.0000
  C   C321      1.0  0.27422  0.30160  0.33935  1.0000
  C   C322      1.0  0.26324  0.27451  0.38079  1.0000
  C   C323      1.0  0.27827  0.25947  0.38010  1.0000
  C   C324      1.0  0.30494  0.26963  0.33664  1.0000
  N   N137      1.0  0.26363  0.23649  0.43130  1.0000
  O   O65       1.0  0.23935  0.26107  0.43244  1.0000
  C   C325      1.0  0.24072  0.23765  0.45984  1.0000
  H   H65       1.0  0.22597  0.22272  0.50216  1.0000
  C   C326      1.0  0.71231  0.97514  0.32270  1.0000
  C   C327      1.0  0.74048  0.99101  0.35726  1.0000
  C   C328      1.0  0.75550  0.02112  0.36012  1.0000
  C   C329      1.0  0.74411  0.03808  0.32801  1.0000
  N   N138      1.0  0.78007  0.02897  0.40180  1.0000
  O   O66       1.0  0.75559  0.98015  0.39739  1.0000
  C   C330      1.0  0.77996  0.00468  0.42076  1.0000
  H   H66       1.0  0.79611  0.00447  0.45524  1.0000
  C   C331      1.0  0.14046  0.32324  0.33750  1.0000
  C   C332      1.0  0.14750  0.30900  0.40398  1.0000
  C   C333      1.0  0.17356  0.30908  0.40221  1.0000
  C   C334      1.0  0.19425  0.32259  0.33365  1.0000
  N   N139      1.0  0.17539  0.29769  0.47947  1.0000
  O   O67       1.0  0.13313  0.29771  0.48210  1.0000
  C   C335      1.0  0.15106  0.29032  0.52369  1.0000
  H   H67       1.0  0.14741  0.28220  0.58739  1.0000
  C   C336      1.0  0.68731  0.81820  0.36840  1.0000
  C   C337      1.0  0.67293  0.82603  0.43222  1.0000
  C   C338      1.0  0.67349  0.85215  0.42802  1.0000
  C   C339      1.0  0.68895  0.87330  0.36223  1.0000
  N   N140      1.0  0.65593  0.85160  0.49180  1.0000
  O   O68       1.0  0.65517  0.80918  0.49881  1.0000
  C   C340      1.0  0.64567  0.82633  0.53295  1.0000
  H   H68       1.0  0.63130  0.82010  0.58442  1.0000
  C   C341      1.0  0.19235  0.87057  0.34399  1.0000
  C   C342      1.0  0.17079  0.86421  0.40893  1.0000
  C   C343      1.0  0.14474  0.83818  0.40811  1.0000
  C   C344      1.0  0.13754  0.81688  0.34156  1.0000
  N   N141      1.0  0.13119  0.83713  0.48391  1.0000
  O   O69       1.0  0.17360  0.87931  0.48517  1.0000
  C   C345      1.0  0.14816  0.86174  0.52671  1.0000
  H   H69       1.0  0.14323  0.86621  0.58866  1.0000
  C   C346      1.0  0.87328  0.68520  0.31532  1.0000
  C   C347      1.0  0.86752  0.70105  0.37963  1.0000
  C   C348      1.0  0.84146  0.70104  0.38076  1.0000
  C   C349      1.0  0.81945  0.68616  0.31692  1.0000
  N   N142      1.0  0.84130  0.71455  0.45530  1.0000
  O   O70       1.0  0.88348  0.71433  0.45361  1.0000
  C   C350      1.0  0.86648  0.72289  0.49534  1.0000
  H   H70       1.0  0.87155  0.73284  0.55644  1.0000
  C   C351      1.0  0.32572  0.18967  0.34017  1.0000
  C   C352      1.0  0.31149  0.16836  0.40661  1.0000
  C   C353      1.0  0.31167  0.14242  0.40502  1.0000
  C   C354      1.0  0.32528  0.13526  0.33668  1.0000
  N   N143      1.0  0.30024  0.12918  0.48222  1.0000
  O   O71       1.0  0.30010  0.17139  0.48459  1.0000
  C   C355      1.0  0.29275  0.14609  0.52622  1.0000
  H   H71       1.0  0.28456  0.14159  0.58985  1.0000
  C   C356      1.0  0.82266  0.13901  0.37880  1.0000
  C   C357      1.0  0.83007  0.16150  0.44127  1.0000
  C   C358      1.0  0.85571  0.18747  0.43530  1.0000
  C   C359      1.0  0.87678  0.19328  0.36922  1.0000
  N   N144      1.0  0.85480  0.20465  0.49772  1.0000
  O   O72       1.0  0.81312  0.16233  0.50767  1.0000
  C   C360      1.0  0.82976  0.18935  0.53989  1.0000
  H   H72       1.0  0.82331  0.19751  0.59069  1.0000
