data_image0
_chemical_formula_structural       C12NC2H2NHNC2H2NHNC2H2NHNC2H2NHNC2H2NHNC2H2NHCNC2ONH2NHCNC2ONH2NHCNC2ONH2NHCNC2ONH2NHCNC2ONH2NHCNC2ONH2NHCNC2ONHNHCNC2ONHNHCNC2ONHNHCNC2ONHNHCNC2ONHNHCNC2ONHNHC6H3C3O3C6H3C3O3C6H3C3O3C6H3C3O3C6H3C3O3C6H3C3O3C5H3C2O3C5H3C2O3C5H3C2O3C5H3C2O3C5H3C2O3C5H3C2O3CNC2ONHNHCNC2ONHNHCNC2ONHNHCNC2ONHNHCNC2ONHNHCNC2ONHNHNC2HNHNC2HNHNC2HNHNC2HNHNC2HNHNC2HNHNC2H2NHNC2H2NHNC2H2NHNC2H2NHNC2H2NHNC2H2NH
_chemical_formula_sum              "C198 N90 H126 O54"
_cell_length_a       55.1277
_cell_length_b       55.1277
_cell_length_c       15.0045
_cell_angle_alpha    90
_cell_angle_beta     90
_cell_angle_gamma    120

_space_group_name_H-M_alt    "P 1"
_space_group_IT_number       1

loop_
  _space_group_symop_operation_xyz
  'x, y, z'

loop_
  _atom_site_type_symbol
  _atom_site_label
  _atom_site_symmetry_multiplicity
  _atom_site_fract_x
  _atom_site_fract_y
  _atom_site_fract_z
  _atom_site_occupancy
  C   C1        1.0  0.23731  0.52726  0.31211  1.0000
  C   C2        1.0  0.21746  0.53634  0.30099  1.0000
  C   C3        1.0  0.46346  0.70104  0.31218  1.0000
  C   C4        1.0  0.45437  0.67211  0.30107  1.0000
  C   C5        1.0  0.28966  0.75339  0.31210  1.0000
  C   C6        1.0  0.31859  0.77324  0.30093  1.0000
  C   C7        1.0  0.75624  0.46050  0.31230  1.0000
  C   C8        1.0  0.77608  0.45141  0.30129  1.0000
  C   C9        1.0  0.53016  0.28668  0.31206  1.0000
  C   C10       1.0  0.53921  0.31560  0.30094  1.0000
  C   C11       1.0  0.70400  0.23433  0.31189  1.0000
  C   C12       1.0  0.67507  0.21447  0.30071  1.0000
  N   N1        1.0  0.18743  0.41732  0.38578  1.0000
  C   C13       1.0  0.17287  0.39064  0.35596  1.0000
  C   C14       1.0  0.17675  0.36985  0.39737  1.0000
  H   H1        1.0  0.15993  0.38616  0.30222  1.0000
  H   H2        1.0  0.24242  0.43055  0.02542  1.0000
  N   N2        1.0  0.16214  0.34255  0.36903  1.0000
  H   H3        1.0  0.14662  0.33785  0.32821  1.0000
  N   N3        1.0  0.57329  0.76100  0.38610  1.0000
  C   C15       1.0  0.59997  0.77314  0.35616  1.0000
  C   C16       1.0  0.62076  0.79783  0.39742  1.0000
  H   H4        1.0  0.60443  0.76466  0.30243  1.0000
  H   H5        1.0  0.56017  0.80289  0.02564  1.0000
  N   N4        1.0  0.64804  0.81052  0.36894  1.0000
  H   H6        1.0  0.65274  0.79970  0.32813  1.0000
  N   N5        1.0  0.22967  0.80331  0.38606  1.0000
  C   C17       1.0  0.21753  0.81786  0.35619  1.0000
  C   C18       1.0  0.19283  0.81393  0.39744  1.0000
  H   H7        1.0  0.22602  0.83082  0.30251  1.0000
  H   H8        1.0  0.18775  0.74816  0.02536  1.0000
  N   N6        1.0  0.18013  0.82852  0.36902  1.0000
  H   H9        1.0  0.19095  0.84405  0.32825  1.0000
  N   N7        1.0  0.80615  0.57062  0.38510  1.0000
  C   C19       1.0  0.82070  0.59732  0.35546  1.0000
  C   C20       1.0  0.81691  0.61810  0.39733  1.0000
  H   H10       1.0  0.83357  0.60182  0.30150  1.0000
  H   H11       1.0  0.75151  0.55720  0.02559  1.0000
  N   N8        1.0  0.83152  0.64541  0.36917  1.0000
  H   H12       1.0  0.84703  0.65014  0.32829  1.0000
  N   N9        1.0  0.42008  0.22648  0.38500  1.0000
  C   C21       1.0  0.39337  0.21434  0.35538  1.0000
  C   C22       1.0  0.37259  0.18977  0.39726  1.0000
  H   H13       1.0  0.38886  0.22270  0.30145  1.0000
  H   H14       1.0  0.43350  0.18522  0.02540  1.0000
  N   N10       1.0  0.34528  0.17708  0.36912  1.0000
  H   H15       1.0  0.34055  0.18786  0.32824  1.0000
  N   N11       1.0  0.76405  0.18446  0.38582  1.0000
  C   C23       1.0  0.77618  0.16989  0.35608  1.0000
  C   C24       1.0  0.80082  0.17375  0.39760  1.0000
  H   H16       1.0  0.76774  0.15696  0.30231  1.0000
  H   H17       1.0  0.80569  0.23940  0.02560  1.0000
  N   N12       1.0  0.81351  0.15913  0.36931  1.0000
  H   H18       1.0  0.80270  0.14362  0.32849  1.0000
  C   C25       1.0  0.21124  0.18017  0.29416  1.0000
  N   N13       1.0  0.18638  0.20233  0.23980  1.0000
  C   C26       1.0  0.19770  0.18578  0.22284  1.0000
  C   C27       1.0  0.19569  0.17636  0.13410  1.0000
  O   O1        1.0  0.19970  0.19445  0.06715  1.0000
  N   N14       1.0  0.18457  0.14900  0.11277  1.0000
  H   H19       1.0  0.17750  0.13453  0.15842  1.0000
  H   H20       1.0  0.18120  0.14314  0.05076  1.0000
  N   N15       1.0  0.22495  0.16509  0.28616  1.0000
  H   H21       1.0  0.22163  0.15411  0.23236  1.0000
  C   C28       1.0  0.81042  0.02203  0.29400  1.0000
  N   N16       1.0  0.78827  0.97502  0.23960  1.0000
  C   C29       1.0  0.80482  0.00288  0.22266  1.0000
  C   C30       1.0  0.81428  0.01030  0.13395  1.0000
  O   O2        1.0  0.79621  0.99622  0.06695  1.0000
  N   N17       1.0  0.84164  0.02654  0.11272  1.0000
  H   H22       1.0  0.85609  0.03394  0.15841  1.0000
  H   H23       1.0  0.84753  0.02904  0.05072  1.0000
  N   N18       1.0  0.82552  0.05083  0.28602  1.0000
  H   H24       1.0  0.83646  0.05849  0.23214  1.0000
  C   C31       1.0  0.96863  0.77944  0.29412  1.0000
  N   N19       1.0  0.01563  0.80425  0.23965  1.0000
  C   C32       1.0  0.98777  0.79295  0.22274  1.0000
  C   C33       1.0  0.98034  0.79496  0.13402  1.0000
  O   O3        1.0  0.99440  0.79093  0.06704  1.0000
  N   N20       1.0  0.96411  0.80608  0.11271  1.0000
  H   H25       1.0  0.95673  0.81317  0.15837  1.0000
  H   H26       1.0  0.96161  0.80946  0.05070  1.0000
  N   N21       1.0  0.93983  0.76573  0.28617  1.0000
  H   H27       1.0  0.93217  0.76904  0.23234  1.0000
  C   C34       1.0  0.78220  0.80757  0.29382  1.0000
  N   N22       1.0  0.80716  0.78548  0.23973  1.0000
  C   C35       1.0  0.79579  0.80198  0.22260  1.0000
  C   C36       1.0  0.79782  0.81138  0.13382  1.0000
  O   O4        1.0  0.79385  0.79328  0.06695  1.0000
  N   N23       1.0  0.80889  0.83872  0.11241  1.0000
  H   H28       1.0  0.81594  0.85320  0.15802  1.0000
  H   H29       1.0  0.81228  0.84457  0.05038  1.0000
  N   N24       1.0  0.76845  0.82261  0.28565  1.0000
  H   H30       1.0  0.77178  0.83358  0.23184  1.0000
  C   C37       1.0  0.18308  0.96561  0.29398  1.0000
  N   N25       1.0  0.20516  0.01265  0.23986  1.0000
  C   C38       1.0  0.18866  0.98479  0.22276  1.0000
  C   C39       1.0  0.17924  0.97740  0.13401  1.0000
  O   O5        1.0  0.19732  0.99154  0.06709  1.0000
  N   N26       1.0  0.15189  0.96113  0.11267  1.0000
  H   H31       1.0  0.13742  0.95370  0.15832  1.0000
  H   H32       1.0  0.14602  0.95866  0.05066  1.0000
  N   N27       1.0  0.16804  0.93681  0.28584  1.0000
  H   H33       1.0  0.15708  0.92917  0.23199  1.0000
  C   C40       1.0  0.02500  0.20843  0.29390  1.0000
  N   N28       1.0  0.97797  0.18349  0.23972  1.0000
  C   C41       1.0  0.00583  0.19485  0.22265  1.0000
  C   C42       1.0  0.01322  0.19283  0.13389  1.0000
  O   O6        1.0  0.99910  0.19680  0.06698  1.0000
  N   N29       1.0  0.02948  0.18174  0.11252  1.0000
  H   H34       1.0  0.03690  0.17469  0.15815  1.0000
  H   H35       1.0  0.03195  0.17836  0.05050  1.0000
  N   N30       1.0  0.05380  0.22218  0.28580  1.0000
  H   H36       1.0  0.06144  0.21884  0.23200  1.0000
  C   C43       1.0  0.21301  0.57547  0.24390  1.0000
  N   N31       1.0  0.22145  0.62045  0.20067  1.0000
  C   C44       1.0  0.21978  0.59597  0.17618  1.0000
  C   C45       1.0  0.22697  0.59407  0.08671  1.0000
  O   O7        1.0  0.24465  0.61790  0.04261  1.0000
  N   N32       1.0  0.21388  0.57016  0.03847  1.0000
  H   H37       1.0  0.19863  0.55303  0.06333  1.0000
  N   N33       1.0  0.21979  0.55485  0.23655  1.0000
  H   H38       1.0  0.23053  0.55564  0.18424  1.0000
  C   C46       1.0  0.41524  0.62853  0.24399  1.0000
  N   N34       1.0  0.37025  0.59200  0.20076  1.0000
  C   C47       1.0  0.39473  0.61481  0.17627  1.0000
  C   C48       1.0  0.39664  0.62390  0.08679  1.0000
  O   O8        1.0  0.37280  0.61776  0.04271  1.0000
  N   N35       1.0  0.42053  0.63469  0.03854  1.0000
  H   H39       1.0  0.43766  0.63656  0.06339  1.0000
  N   N36       1.0  0.43586  0.65592  0.23661  1.0000
  H   H40       1.0  0.43509  0.66587  0.18429  1.0000
  C   C49       1.0  0.36216  0.77767  0.24390  1.0000
  N   N37       1.0  0.39869  0.76920  0.20074  1.0000
  C   C50       1.0  0.37588  0.77087  0.17621  1.0000
  C   C51       1.0  0.36679  0.76367  0.08674  1.0000
  O   O9        1.0  0.37294  0.74598  0.04270  1.0000
  N   N38       1.0  0.35599  0.77676  0.03845  1.0000
  H   H41       1.0  0.35412  0.79202  0.06328  1.0000
  N   N39       1.0  0.33477  0.77089  0.23652  1.0000
  H   H42       1.0  0.32481  0.76016  0.18422  1.0000
  C   C52       1.0  0.78057  0.41229  0.24416  1.0000
  N   N40       1.0  0.77214  0.36732  0.20084  1.0000
  C   C53       1.0  0.77380  0.39180  0.17640  1.0000
  C   C54       1.0  0.76660  0.39371  0.08694  1.0000
  O   O10       1.0  0.74893  0.36988  0.04282  1.0000
  N   N41       1.0  0.77967  0.41762  0.03875  1.0000
  H   H43       1.0  0.79492  0.43475  0.06363  1.0000
  N   N42       1.0  0.77375  0.43287  0.23692  1.0000
  H   H44       1.0  0.76302  0.43210  0.18459  1.0000
  C   C55       1.0  0.57833  0.35921  0.24387  1.0000
  N   N43       1.0  0.62331  0.39576  0.20067  1.0000
  C   C56       1.0  0.59884  0.37294  0.17617  1.0000
  C   C57       1.0  0.59695  0.36384  0.08671  1.0000
  O   O11       1.0  0.62079  0.37001  0.04264  1.0000
  N   N44       1.0  0.57305  0.35300  0.03845  1.0000
  H   H45       1.0  0.55590  0.35111  0.06329  1.0000
  N   N45       1.0  0.55775  0.33180  0.23657  1.0000
  H   H46       1.0  0.55854  0.32186  0.18426  1.0000
  C   C58       1.0  0.63149  0.21005  0.24371  1.0000
  N   N46       1.0  0.59497  0.21853  0.20057  1.0000
  C   C59       1.0  0.61777  0.21686  0.17603  1.0000
  C   C60       1.0  0.62687  0.22407  0.08657  1.0000
  O   O12       1.0  0.62072  0.24177  0.04256  1.0000
  N   N47       1.0  0.63768  0.21099  0.03827  1.0000
  H   H47       1.0  0.63955  0.19573  0.06307  1.0000
  N   N48       1.0  0.65889  0.21683  0.23637  1.0000
  H   H48       1.0  0.66883  0.22758  0.18407  1.0000
  C   C61       1.0  0.14356  0.24853  0.30573  1.0000
  C   C62       1.0  0.11425  0.23755  0.30509  1.0000
  C   C63       1.0  0.10228  0.25366  0.33420  1.0000
  C   C64       1.0  0.12050  0.28157  0.36156  1.0000
  C   C65       1.0  0.14994  0.29356  0.36040  1.0000
  C   C66       1.0  0.16109  0.27653  0.33376  1.0000
  H   H49       1.0  0.11211  0.29330  0.38434  1.0000
  H   H50       1.0  0.18238  0.28486  0.33265  1.0000
  H   H51       1.0  0.10140  0.21691  0.28900  1.0000
  C   C67       1.0  0.15508  0.23136  0.28222  1.0000
  C   C68       1.0  0.16772  0.32170  0.38907  1.0000
  C   C69       1.0  0.07272  0.24164  0.34340  1.0000
  O   O13       1.0  0.19138  0.32754  0.43375  1.0000
  O   O14       1.0  0.14283  0.21299  0.21432  1.0000
  O   O15       1.0  0.06380  0.25110  0.41225  1.0000
  C   C70       1.0  0.74205  0.88599  0.30543  1.0000
  C   C71       1.0  0.75303  0.86766  0.30475  1.0000
  C   C72       1.0  0.73694  0.83959  0.33395  1.0000
  C   C73       1.0  0.70903  0.82989  0.36132  1.0000
  C   C74       1.0  0.69703  0.84733  0.36012  1.0000
  C   C75       1.0  0.71405  0.87551  0.33340  1.0000
  H   H52       1.0  0.69730  0.80977  0.38416  1.0000
  H   H53       1.0  0.70572  0.88847  0.33238  1.0000
  H   H54       1.0  0.77368  0.87546  0.28879  1.0000
  C   C76       1.0  0.75922  0.91468  0.28195  1.0000
  C   C77       1.0  0.66889  0.83697  0.38884  1.0000
  C   C78       1.0  0.74897  0.82207  0.34322  1.0000
  O   O16       1.0  0.66306  0.85480  0.43355  1.0000
  O   O17       1.0  0.77759  0.92081  0.21406  1.0000
  O   O18       1.0  0.73952  0.80370  0.41211  1.0000
  C   C79       1.0  0.10465  0.84703  0.30543  1.0000
  C   C80       1.0  0.12298  0.87635  0.30485  1.0000
  C   C81       1.0  0.15103  0.88832  0.33418  1.0000
  C   C82       1.0  0.16073  0.87011  0.36152  1.0000
  C   C83       1.0  0.14330  0.84067  0.36022  1.0000
  C   C84       1.0  0.11513  0.82951  0.33344  1.0000
  H   H55       1.0  0.18085  0.87851  0.38440  1.0000
  H   H56       1.0  0.10218  0.80822  0.33230  1.0000
  H   H57       1.0  0.11517  0.88919  0.28886  1.0000
  C   C85       1.0  0.07597  0.83550  0.28182  1.0000
  C   C86       1.0  0.15367  0.82289  0.38887  1.0000
  C   C87       1.0  0.16856  0.91788  0.34346  1.0000
  O   O19       1.0  0.13585  0.79923  0.43357  1.0000
  O   O20       1.0  0.06986  0.84778  0.21401  1.0000
  O   O21       1.0  0.18686  0.92678  0.41252  1.0000
  C   C88       1.0  0.85005  0.73940  0.30604  1.0000
  C   C89       1.0  0.87937  0.75039  0.30543  1.0000
  C   C90       1.0  0.89135  0.73431  0.33475  1.0000
  C   C91       1.0  0.87314  0.70640  0.36210  1.0000
  C   C92       1.0  0.84370  0.69439  0.36083  1.0000
  C   C93       1.0  0.83254  0.71140  0.33407  1.0000
  H   H58       1.0  0.88154  0.69468  0.38494  1.0000
  H   H59       1.0  0.81125  0.70306  0.33292  1.0000
  H   H60       1.0  0.89222  0.77104  0.28940  1.0000
  C   C94       1.0  0.83852  0.75654  0.28237  1.0000
  C   C95       1.0  0.82593  0.66624  0.38941  1.0000
  C   C96       1.0  0.92090  0.74634  0.34394  1.0000
  O   O22       1.0  0.80227  0.66038  0.43415  1.0000
  O   O23       1.0  0.85081  0.77493  0.21455  1.0000
  O   O24       1.0  0.92982  0.73694  0.41297  1.0000
  C   C97       1.0  0.25127  0.10163  0.30609  1.0000
  C   C98       1.0  0.24029  0.11997  0.30545  1.0000
  C   C99       1.0  0.25638  0.14803  0.33471  1.0000
  C   C100      1.0  0.28430  0.15773  0.36203  1.0000
  C   C101      1.0  0.29629  0.14028  0.36082  1.0000
  C   C102      1.0  0.27927  0.11211  0.33409  1.0000
  H   H61       1.0  0.29602  0.17785  0.38486  1.0000
  H   H62       1.0  0.28760  0.09916  0.33296  1.0000
  H   H63       1.0  0.21964  0.11218  0.28944  1.0000
  C   C103      1.0  0.23411  0.07295  0.28246  1.0000
  C   C104      1.0  0.32444  0.15066  0.38937  1.0000
  C   C105      1.0  0.24436  0.16557  0.34390  1.0000
  O   O25       1.0  0.33030  0.13286  0.43412  1.0000
  O   O26       1.0  0.21575  0.06685  0.21456  1.0000
  O   O27       1.0  0.25379  0.18391  0.41287  1.0000
  C   C106      1.0  0.88897  0.14061  0.30588  1.0000
  C   C107      1.0  0.87064  0.11129  0.30515  1.0000
  C   C108      1.0  0.84259  0.09932  0.33451  1.0000
  C   C109      1.0  0.83289  0.11753  0.36190  1.0000
  C   C110      1.0  0.85032  0.14697  0.36067  1.0000
  C   C111      1.0  0.87850  0.15812  0.33391  1.0000
  H   H64       1.0  0.81277  0.10913  0.38480  1.0000
  H   H65       1.0  0.89145  0.17941  0.33281  1.0000
  H   H66       1.0  0.87844  0.09844  0.28924  1.0000
  C   C112      1.0  0.91766  0.15213  0.28227  1.0000
  C   C113      1.0  0.83996  0.16474  0.38931  1.0000
  C   C114      1.0  0.82506  0.06976  0.34379  1.0000
  O   O28       1.0  0.85777  0.18840  0.43405  1.0000
  O   O29       1.0  0.92376  0.13988  0.21435  1.0000
  O   O30       1.0  0.80677  0.06086  0.41288  1.0000
  C   C115      1.0  0.25160  0.49565  0.38294  1.0000
  C   C116      1.0  0.27917  0.51316  0.35049  1.0000
  C   C117      1.0  0.28622  0.53674  0.29608  1.0000
  C   C118      1.0  0.26459  0.54262  0.27568  1.0000
  C   C119      1.0  0.23140  0.50382  0.36561  1.0000
  H   H67       1.0  0.26989  0.56068  0.24195  1.0000
  H   H68       1.0  0.21123  0.49139  0.38647  1.0000
  H   H69       1.0  0.29401  0.50755  0.36181  1.0000
  C   C120      1.0  0.24405  0.46909  0.42222  1.0000
  C   C121      1.0  0.31368  0.55447  0.26253  1.0000
  O   O31       1.0  0.19603  0.52738  0.36000  1.0000
  O   O32       1.0  0.25893  0.45678  0.39621  1.0000
  O   O33       1.0  0.31587  0.57089  0.19190  1.0000
  C   C122      1.0  0.49501  0.74691  0.38324  1.0000
  C   C123      1.0  0.47753  0.75698  0.35061  1.0000
  C   C124      1.0  0.45397  0.74046  0.29612  1.0000
  C   C125      1.0  0.44811  0.71297  0.27568  1.0000
  C   C126      1.0  0.48685  0.71855  0.36585  1.0000
  H   H70       1.0  0.43006  0.70021  0.24187  1.0000
  H   H71       1.0  0.49926  0.71079  0.38686  1.0000
  H   H72       1.0  0.48309  0.77740  0.36217  1.0000
  C   C127      1.0  0.52151  0.76590  0.42290  1.0000
  C   C128      1.0  0.43623  0.75019  0.26255  1.0000
  O   O34       1.0  0.46330  0.65962  0.36015  1.0000
  O   O35       1.0  0.53390  0.79304  0.39630  1.0000
  O   O36       1.0  0.41984  0.73597  0.19187  1.0000
  C   C129      1.0  0.24377  0.73910  0.38301  1.0000
  C   C130      1.0  0.23369  0.71154  0.35042  1.0000
  C   C131      1.0  0.25022  0.70448  0.29606  1.0000
  C   C132      1.0  0.27774  0.72610  0.27581  1.0000
  C   C133      1.0  0.27214  0.75930  0.36567  1.0000
  H   H73       1.0  0.29048  0.72081  0.24183  1.0000
  H   H74       1.0  0.27989  0.77946  0.38656  1.0000
  H   H75       1.0  0.21326  0.69670  0.36188  1.0000
  C   C134      1.0  0.22478  0.74665  0.42248  1.0000
  C   C135      1.0  0.24047  0.67702  0.26246  1.0000
  O   O37       1.0  0.33108  0.79468  0.35994  1.0000
  O   O38       1.0  0.19759  0.73179  0.39657  1.0000
  O   O39       1.0  0.25477  0.67481  0.19209  1.0000
  C   C136      1.0  0.74195  0.49213  0.38294  1.0000
  C   C137      1.0  0.71438  0.47463  0.35045  1.0000
  C   C138      1.0  0.70733  0.45104  0.29612  1.0000
  C   C139      1.0  0.72894  0.44512  0.27598  1.0000
  C   C140      1.0  0.76215  0.48396  0.36569  1.0000
  H   H76       1.0  0.72366  0.42708  0.24209  1.0000
  H   H77       1.0  0.78229  0.49634  0.38681  1.0000
  H   H78       1.0  0.69954  0.48024  0.36176  1.0000
  C   C141      1.0  0.74949  0.51869  0.42223  1.0000
  C   C142      1.0  0.67988  0.43333  0.26247  1.0000
  O   O40       1.0  0.79752  0.46038  0.36028  1.0000
  O   O41       1.0  0.73480  0.53110  0.39531  1.0000
  O   O42       1.0  0.67768  0.41681  0.19212  1.0000
  C   C143      1.0  0.49855  0.24075  0.38274  1.0000
  C   C144      1.0  0.51609  0.23072  0.35031  1.0000
  C   C145      1.0  0.53968  0.24727  0.29602  1.0000
  C   C146      1.0  0.54557  0.27479  0.27583  1.0000
  C   C147      1.0  0.50670  0.26912  0.36544  1.0000
  H   H79       1.0  0.56361  0.28756  0.24194  1.0000
  H   H80       1.0  0.49428  0.27685  0.38642  1.0000
  H   H81       1.0  0.51048  0.21027  0.36167  1.0000
  C   C148      1.0  0.47198  0.22172  0.42191  1.0000
  C   C149      1.0  0.55741  0.23755  0.26243  1.0000
  O   O43       1.0  0.53024  0.32806  0.35994  1.0000
  O   O44       1.0  0.45959  0.19463  0.39490  1.0000
  O   O45       1.0  0.57395  0.25188  0.19213  1.0000
  C   C150      1.0  0.74989  0.24864  0.38284  1.0000
  C   C151      1.0  0.75994  0.27621  0.35041  1.0000
  C   C152      1.0  0.74342  0.28327  0.29602  1.0000
  C   C153      1.0  0.71590  0.26164  0.27572  1.0000
  C   C154      1.0  0.72153  0.22842  0.36532  1.0000
  H   H82       1.0  0.70315  0.26692  0.24177  1.0000
  H   H83       1.0  0.71380  0.20826  0.38624  1.0000
  H   H84       1.0  0.78038  0.29106  0.36188  1.0000
  C   C155      1.0  0.76890  0.24110  0.42215  1.0000
  C   C156      1.0  0.75315  0.31073  0.26248  1.0000
  O   O46       1.0  0.66259  0.19302  0.35968  1.0000
  O   O47       1.0  0.79600  0.25579  0.39509  1.0000
  O   O48       1.0  0.73886  0.31295  0.19209  1.0000
  C   C157      1.0  0.20520  0.42539  0.45652  1.0000
  N   N49       1.0  0.19446  0.37818  0.46854  1.0000
  C   C158      1.0  0.20886  0.40478  0.50125  1.0000
  C   C159      1.0  0.22618  0.40964  0.57676  1.0000
  O   O49       1.0  0.23523  0.39136  0.59375  1.0000
  N   N50       1.0  0.23190  0.42961  0.63883  1.0000
  H   H85       1.0  0.22326  0.44120  0.63706  1.0000
  N   N51       1.0  0.22047  0.45347  0.47174  1.0000
  H   H86       1.0  0.20937  0.46185  0.48956  1.0000
  C   C160      1.0  0.56525  0.77072  0.45684  1.0000
  N   N52       1.0  0.61246  0.80723  0.46858  1.0000
  C   C161      1.0  0.58587  0.79503  0.50143  1.0000
  C   C162      1.0  0.58102  0.80751  0.57690  1.0000
  O   O50       1.0  0.59930  0.83486  0.59375  1.0000
  N   N53       1.0  0.56109  0.79329  0.63908  1.0000
  H   H87       1.0  0.54951  0.77306  0.63740  1.0000
  N   N54       1.0  0.53717  0.75793  0.47214  1.0000
  H   H88       1.0  0.52879  0.73845  0.48999  1.0000
  C   C163      1.0  0.21994  0.78551  0.45671  1.0000
  N   N55       1.0  0.18342  0.79619  0.46853  1.0000
  C   C164      1.0  0.19562  0.78180  0.50129  1.0000
  C   C165      1.0  0.18314  0.76444  0.57671  1.0000
  O   O51       1.0  0.15578  0.75535  0.59353  1.0000
  N   N56       1.0  0.19736  0.75871  0.63883  1.0000
  H   H89       1.0  0.21759  0.76737  0.63718  1.0000
  N   N57       1.0  0.23275  0.77024  0.47193  1.0000
  H   H90       1.0  0.25223  0.78134  0.48968  1.0000
  C   C166      1.0  0.78849  0.56252  0.45611  1.0000
  N   N58       1.0  0.79928  0.60974  0.46872  1.0000
  C   C167      1.0  0.78489  0.58312  0.50126  1.0000
  C   C168      1.0  0.76766  0.57821  0.57702  1.0000
  O   O52       1.0  0.75868  0.59652  0.59457  1.0000
  N   N59       1.0  0.76196  0.55818  0.63881  1.0000
  H   H91       1.0  0.77056  0.54655  0.63662  1.0000
  N   N60       1.0  0.77319  0.53443  0.47096  1.0000
  H   H92       1.0  0.78429  0.52610  0.48935  1.0000
  C   C169      1.0  0.42817  0.21691  0.45597  1.0000
  N   N61       1.0  0.38095  0.18049  0.46862  1.0000
  C   C170      1.0  0.40758  0.19271  0.50113  1.0000
  C   C171      1.0  0.41249  0.18038  0.57686  1.0000
  O   O53       1.0  0.39417  0.15309  0.59441  1.0000
  N   N62       1.0  0.43253  0.19471  0.63863  1.0000
  H   H93       1.0  0.44416  0.21493  0.63645  1.0000
  N   N63       1.0  0.45627  0.22969  0.47079  1.0000
  H   H94       1.0  0.46461  0.24912  0.48924  1.0000
  C   C172      1.0  0.77373  0.20221  0.45658  1.0000
  N   N64       1.0  0.81019  0.19145  0.46880  1.0000
  C   C173      1.0  0.79799  0.20586  0.50143  1.0000
  C   C174      1.0  0.81040  0.22316  0.57700  1.0000
  O   O54       1.0  0.83773  0.23218  0.59417  1.0000
  N   N65       1.0  0.79614  0.22889  0.63896  1.0000
  H   H95       1.0  0.77592  0.22028  0.63705  1.0000
  N   N66       1.0  0.76095  0.21750  0.47159  1.0000
  H   H96       1.0  0.74150  0.20664  0.48984  1.0000
  N   N67       1.0  0.21080  0.19123  0.37491  1.0000
  C   C175      1.0  0.19912  0.20727  0.39125  1.0000
  C   C176      1.0  0.18622  0.21341  0.32066  1.0000
  H   H97       1.0  0.19996  0.21474  0.45417  1.0000
  N   N68       1.0  0.17489  0.23032  0.33384  1.0000
  H   H98       1.0  0.18045  0.24150  0.38833  1.0000
  N   N69       1.0  0.79934  0.01053  0.37472  1.0000
  C   C177      1.0  0.78329  0.98280  0.39103  1.0000
  C   C178      1.0  0.77716  0.96376  0.32043  1.0000
  H   H99       1.0  0.77581  0.97618  0.45394  1.0000
  N   N70       1.0  0.76025  0.93553  0.33358  1.0000
  H   H100      1.0  0.74906  0.92990  0.38805  1.0000
  N   N71       1.0  0.98014  0.77988  0.37485  1.0000
  C   C179      1.0  0.00786  0.79155  0.39113  1.0000
  C   C180      1.0  0.02689  0.80443  0.32049  1.0000
  H   H101      1.0  0.01449  0.79071  0.45404  1.0000
  N   N72       1.0  0.05513  0.81574  0.33360  1.0000
  H   H102      1.0  0.06076  0.81019  0.38810  1.0000
  N   N73       1.0  0.78264  0.79655  0.37463  1.0000
  C   C181      1.0  0.79438  0.78056  0.39113  1.0000
  C   C182      1.0  0.80733  0.77444  0.32065  1.0000
  H   H103      1.0  0.79353  0.77312  0.45409  1.0000
  N   N74       1.0  0.81869  0.75757  0.33398  1.0000
  H   H104      1.0  0.81314  0.74640  0.38849  1.0000
  N   N75       1.0  0.19413  0.97708  0.37477  1.0000
  C   C183      1.0  0.21012  0.00480  0.39123  1.0000
  C   C184      1.0  0.21623  0.02387  0.32076  1.0000
  H   H105      1.0  0.21758  0.01140  0.45418  1.0000
  N   N76       1.0  0.23310  0.05211  0.33406  1.0000
  H   H106      1.0  0.24426  0.05773  0.38857  1.0000
  N   N77       1.0  0.01352  0.20799  0.37469  1.0000
  C   C185      1.0  0.98580  0.19626  0.39113  1.0000
  C   C186      1.0  0.96673  0.18332  0.32062  1.0000
  H   H107      1.0  0.97919  0.19711  0.45408  1.0000
  N   N78       1.0  0.93850  0.17195  0.33390  1.0000
  H   H108      1.0  0.93288  0.17750  0.38841  1.0000
  N   N79       1.0  0.20505  0.58075  0.32437  1.0000
  C   C187      1.0  0.20412  0.60430  0.34427  1.0000
  C   C188      1.0  0.21510  0.62651  0.28219  1.0000
  H   H109      1.0  0.19941  0.60707  0.40796  1.0000
  H   H110      1.0  0.21811  0.57033  0.64211  1.0000
  N   N80       1.0  0.22111  0.65300  0.30464  1.0000
  H   H111      1.0  0.21456  0.65516  0.36277  1.0000
  N   N81       1.0  0.40994  0.61529  0.32446  1.0000
  C   C189      1.0  0.38639  0.59081  0.34437  1.0000
  C   C190      1.0  0.36418  0.57959  0.28228  1.0000
  H   H112      1.0  0.38362  0.58334  0.40806  1.0000
  H   H113      1.0  0.42037  0.63876  0.64218  1.0000
  N   N82       1.0  0.33769  0.55912  0.30473  1.0000
  H   H114      1.0  0.33552  0.55042  0.36289  1.0000
  N   N83       1.0  0.37540  0.78562  0.32437  1.0000
  C   C191      1.0  0.39987  0.78655  0.34430  1.0000
  C   C192      1.0  0.41110  0.77555  0.28225  1.0000
  H   H115      1.0  0.40735  0.79127  0.40799  1.0000
  H   H116      1.0  0.35192  0.77252  0.64209  1.0000
  N   N84       1.0  0.43157  0.76954  0.30473  1.0000
  H   H117      1.0  0.44027  0.77608  0.36290  1.0000
  N   N85       1.0  0.78853  0.40699  0.32461  1.0000
  C   C193      1.0  0.78948  0.38345  0.34445  1.0000
  C   C194      1.0  0.77850  0.36124  0.28233  1.0000
  H   H118      1.0  0.79419  0.38067  0.40813  1.0000
  H   H119      1.0  0.77544  0.41746  0.64238  1.0000
  N   N86       1.0  0.77247  0.33475  0.30473  1.0000
  H   H120      1.0  0.77905  0.33260  0.36283  1.0000
  N   N87       1.0  0.58360  0.37245  0.32433  1.0000
  C   C195      1.0  0.60714  0.39695  0.34423  1.0000
  C   C196      1.0  0.62936  0.40818  0.28217  1.0000
  H   H121      1.0  0.60990  0.40443  0.40792  1.0000
  H   H122      1.0  0.57322  0.34893  0.64211  1.0000
  N   N88       1.0  0.65585  0.42864  0.30463  1.0000
  H   H123      1.0  0.65799  0.43737  0.36273  1.0000
  N   N89       1.0  0.61825  0.20207  0.32417  1.0000
  C   C197      1.0  0.59377  0.20114  0.34409  1.0000
  C   C198      1.0  0.58255  0.21216  0.28208  1.0000
  H   H124      1.0  0.58628  0.19642  0.40778  1.0000
  H   H125      1.0  0.64175  0.21524  0.64191  1.0000
  N   N90       1.0  0.56210  0.21820  0.30456  1.0000
  H   H126      1.0  0.55336  0.21160  0.36264  1.0000
