data_image0
_chemical_formula_structural       C2NC3H3OC2NC3H3OC2NC3H3OC2NC3H3ONCHNCHNCHNCHNCHNCHNCHNCHC2NC3H3OC2NC3H3OC2NC3H3OC2NC3H3OC2NC3H3OC2NC3H3OC2NC3H3OC2NC3H3ONCHNCHNCHNCHNCHNCHNCHNCHNCHNCHC6H3C6H3C6H3C6H3C6H3C6H3C6H3C6H3C6H3C6H3C6H3C6H3C6H3C6H3C6H3C6H3C6H3C6H3C6H3C6H3NCHNCHNCHNCHC2NC3H3OC2NC3H3OC2NC3H3OC2NC3H3OC2NC3H3OC2NC3H3OC2NC3H3OC2NC3H3ONCHNCHNCHNCHNCHNCHNCHNCHC2NC3H3OC2NC3H3OC2NC3H3OC2NC3H3OC2NC3H3OC2NC3H3OC2NC3H3OC2NC3H3OC2NC3H3OC2NC3H3O
_chemical_formula_sum              "C300 N60 H180 O30"
_cell_length_a       43.9791
_cell_length_b       43.9791
_cell_length_c       14.8643
_cell_angle_alpha    90
_cell_angle_beta     90
_cell_angle_gamma    90

_space_group_name_H-M_alt    "P 1"
_space_group_IT_number       1

loop_
  _space_group_symop_operation_xyz
  'x, y, z'

loop_
  _atom_site_type_symbol
  _atom_site_label
  _atom_site_symmetry_multiplicity
  _atom_site_fract_x
  _atom_site_fract_y
  _atom_site_fract_z
  _atom_site_occupancy
  C   C1        1.0  0.37357  0.05488  0.33435  1.0000
  C   C2        1.0  0.31157  0.04173  0.34041  1.0000
  N   N1        1.0  0.33031  0.02785  0.28050  1.0000
  C   C3        1.0  0.36073  0.03313  0.27456  1.0000
  C   C4        1.0  0.37702  0.01870  0.20709  1.0000
  C   C5        1.0  0.38164  0.03532  0.12387  1.0000
  H   H1        1.0  0.39033  0.05817  0.13703  1.0000
  H   H2        1.0  0.36031  0.03719  0.08659  1.0000
  H   H3        1.0  0.39827  0.02359  0.08178  1.0000
  O   O1        1.0  0.37233  0.99144  0.19817  1.0000
  C   C6        1.0  0.63373  0.95236  0.32343  1.0000
  C   C7        1.0  0.69474  0.96925  0.32596  1.0000
  N   N2        1.0  0.68429  0.94743  0.26916  1.0000
  C   C8        1.0  0.65481  0.93846  0.26390  1.0000
  C   C9        1.0  0.64719  0.91719  0.19905  1.0000
  C   C10       1.0  0.62918  0.92540  0.12110  1.0000
  H   H4        1.0  0.61132  0.90849  0.11131  1.0000
  H   H5        1.0  0.64351  0.92595  0.06113  1.0000
  H   H6        1.0  0.61838  0.94764  0.12849  1.0000
  O   O2        1.0  0.66252  0.89402  0.19447  1.0000
  C   C11       1.0  0.95285  0.37503  0.33453  1.0000
  C   C12       1.0  0.96601  0.31307  0.34220  1.0000
  N   N3        1.0  0.97986  0.33161  0.28172  1.0000
  C   C13       1.0  0.97457  0.36201  0.27502  1.0000
  C   C14       1.0  0.98899  0.37810  0.20710  1.0000
  C   C15       1.0  0.97237  0.38246  0.12376  1.0000
  H   H7        1.0  0.94951  0.39116  0.13668  1.0000
  H   H8        1.0  0.97053  0.36101  0.08703  1.0000
  H   H9        1.0  0.98408  0.39898  0.08124  1.0000
  O   O3        1.0  0.01626  0.37341  0.19831  1.0000
  C   C16       1.0  0.05572  0.63517  0.32366  1.0000
  C   C17       1.0  0.03865  0.69619  0.32388  1.0000
  N   N4        1.0  0.06083  0.68560  0.26852  1.0000
  C   C18       1.0  0.06997  0.65612  0.26441  1.0000
  C   C19       1.0  0.09177  0.64802  0.20143  1.0000
  C   C20       1.0  0.08112  0.63479  0.11774  1.0000
  H   H10       1.0  0.10023  0.62537  0.08000  1.0000
  H   H11       1.0  0.06995  0.65202  0.07636  1.0000
  H   H12       1.0  0.06508  0.61631  0.13033  1.0000
  O   O4        1.0  0.11361  0.66512  0.19430  1.0000
  N   N5        1.0  0.14343  0.53251  0.31244  1.0000
  C   C21       1.0  0.17261  0.52281  0.30835  1.0000
  H   H13       1.0  0.17818  0.50550  0.26557  1.0000
  N   N6        1.0  0.85587  0.44127  0.29177  1.0000
  C   C22       1.0  0.82577  0.44708  0.28608  1.0000
  H   H14       1.0  0.81315  0.43612  0.23827  1.0000
  N   N7        1.0  0.53174  0.86378  0.31229  1.0000
  C   C23       1.0  0.52218  0.83454  0.30892  1.0000
  H   H15       1.0  0.50491  0.82878  0.26621  1.0000
  N   N8        1.0  0.44062  0.15129  0.29040  1.0000
  C   C24       1.0  0.44679  0.18129  0.28333  1.0000
  H   H16       1.0  0.43614  0.19374  0.23456  1.0000
  N   N9        1.0  0.19038  0.08959  0.29505  1.0000
  C   C25       1.0  0.17750  0.11770  0.28934  1.0000
  H   H17       1.0  0.16462  0.12300  0.23430  1.0000
  N   N10       1.0  0.81620  0.91920  0.29958  1.0000
  C   C26       1.0  0.82929  0.89115  0.29603  1.0000
  H   H18       1.0  0.84370  0.88615  0.24415  1.0000
  N   N11       1.0  0.91796  0.19191  0.29989  1.0000
  C   C27       1.0  0.88980  0.17911  0.29504  1.0000
  H   H19       1.0  0.88433  0.16607  0.24048  1.0000
  N   N12       1.0  0.08837  0.81780  0.29428  1.0000
  C   C28       1.0  0.11641  0.83092  0.29001  1.0000
  H   H20       1.0  0.12128  0.84526  0.23787  1.0000
  C   C29       1.0  0.29668  0.57857  0.32078  1.0000
  C   C30       1.0  0.32009  0.63819  0.32900  1.0000
  N   N13       1.0  0.30090  0.62925  0.26258  1.0000
  C   C31       1.0  0.28936  0.60067  0.25388  1.0000
  C   C32       1.0  0.26993  0.59540  0.18211  1.0000
  C   C33       1.0  0.27587  0.57228  0.11496  1.0000
  H   H21       1.0  0.29589  0.55861  0.13121  1.0000
  H   H22       1.0  0.27961  0.58293  0.04956  1.0000
  H   H23       1.0  0.25630  0.55710  0.11014  1.0000
  O   O5        1.0  0.24943  0.61357  0.16758  1.0000
  C   C34       1.0  0.70973  0.42919  0.32379  1.0000
  C   C35       1.0  0.68583  0.36977  0.33423  1.0000
  N   N14       1.0  0.70414  0.37862  0.26560  1.0000
  C   C36       1.0  0.71579  0.40710  0.25572  1.0000
  C   C37       1.0  0.73427  0.41219  0.18164  1.0000
  C   C38       1.0  0.72816  0.43592  0.11647  1.0000
  H   H24       1.0  0.70866  0.44992  0.13547  1.0000
  H   H25       1.0  0.72344  0.42579  0.05088  1.0000
  H   H26       1.0  0.74802  0.45065  0.11057  1.0000
  O   O6        1.0  0.75428  0.39376  0.16419  1.0000
  C   C39       1.0  0.57824  0.71046  0.32487  1.0000
  C   C40       1.0  0.63771  0.68656  0.33463  1.0000
  N   N15       1.0  0.62912  0.70595  0.26832  1.0000
  C   C41       1.0  0.60066  0.71771  0.25885  1.0000
  C   C42       1.0  0.59581  0.73730  0.18721  1.0000
  C   C43       1.0  0.57301  0.73156  0.11894  1.0000
  H   H27       1.0  0.55906  0.71169  0.13460  1.0000
  H   H28       1.0  0.58399  0.72768  0.05408  1.0000
  H   H29       1.0  0.55806  0.75128  0.11330  1.0000
  O   O7        1.0  0.61430  0.75757  0.17317  1.0000
  C   C44       1.0  0.42886  0.29735  0.31903  1.0000
  C   C45       1.0  0.36930  0.32080  0.32797  1.0000
  N   N16       1.0  0.37849  0.30272  0.25922  1.0000
  C   C46       1.0  0.40708  0.29127  0.25006  1.0000
  C   C47       1.0  0.41253  0.27297  0.17584  1.0000
  C   C48       1.0  0.43680  0.27888  0.11230  1.0000
  H   H30       1.0  0.45051  0.29856  0.13152  1.0000
  H   H31       1.0  0.42722  0.28322  0.04577  1.0000
  H   H32       1.0  0.45169  0.25908  0.10839  1.0000
  O   O8        1.0  0.39455  0.25253  0.15856  1.0000
  C   C49       1.0  0.22815  0.96772  0.32090  1.0000
  C   C50       1.0  0.21417  0.90492  0.33197  1.0000
  N   N17       1.0  0.23445  0.91604  0.27140  1.0000
  C   C51       1.0  0.24194  0.94598  0.26228  1.0000
  C   C52       1.0  0.26186  0.95334  0.19344  1.0000
  C   C53       1.0  0.25205  0.97078  0.11594  1.0000
  H   H33       1.0  0.22962  0.98098  0.12570  1.0000
  H   H34       1.0  0.25104  0.95616  0.05663  1.0000
  H   H35       1.0  0.26830  0.98905  0.10341  1.0000
  O   O9        1.0  0.28539  0.93867  0.18625  1.0000
  C   C54       1.0  0.77963  0.04135  0.32700  1.0000
  C   C55       1.0  0.79309  0.10399  0.34074  1.0000
  N   N18       1.0  0.77429  0.09293  0.27619  1.0000
  C   C56       1.0  0.76717  0.06300  0.26554  1.0000
  C   C57       1.0  0.74872  0.05573  0.19310  1.0000
  C   C58       1.0  0.75906  0.03667  0.11970  1.0000
  H   H36       1.0  0.78152  0.02694  0.13250  1.0000
  H   H37       1.0  0.76029  0.04997  0.05781  1.0000
  H   H38       1.0  0.74302  0.01803  0.10991  1.0000
  O   O10       1.0  0.72498  0.06985  0.18305  1.0000
  C   C59       1.0  0.03984  0.22951  0.32355  1.0000
  C   C60       1.0  0.10252  0.21524  0.33354  1.0000
  N   N19       1.0  0.09139  0.23542  0.27274  1.0000
  C   C61       1.0  0.06146  0.24305  0.26408  1.0000
  C   C62       1.0  0.05380  0.26293  0.19533  1.0000
  C   C63       1.0  0.03813  0.25182  0.11604  1.0000
  H   H39       1.0  0.02556  0.23086  0.12924  1.0000
  H   H40       1.0  0.05443  0.24746  0.06212  1.0000
  H   H41       1.0  0.02191  0.26895  0.09320  1.0000
  O   O11       1.0  0.06936  0.28578  0.18573  1.0000
  C   C64       1.0  0.96621  0.78091  0.32417  1.0000
  C   C65       1.0  0.90347  0.79418  0.33872  1.0000
  N   N20       1.0  0.91451  0.77520  0.27457  1.0000
  C   C66       1.0  0.94445  0.76816  0.26356  1.0000
  C   C67       1.0  0.95166  0.74947  0.19160  1.0000
  C   C68       1.0  0.97019  0.75990  0.11710  1.0000
  H   H42       1.0  0.98006  0.78232  0.12953  1.0000
  H   H43       1.0  0.95645  0.76124  0.05606  1.0000
  H   H44       1.0  0.98873  0.74385  0.10595  1.0000
  O   O12       1.0  0.93729  0.72588  0.18158  1.0000
  N   N21       1.0  0.29894  0.45425  0.29480  1.0000
  C   C69       1.0  0.30690  0.42443  0.28764  1.0000
  H   H45       1.0  0.32169  0.41804  0.23811  1.0000
  N   N22       1.0  0.70805  0.55289  0.30606  1.0000
  C   C70       1.0  0.69977  0.58264  0.29963  1.0000
  H   H46       1.0  0.68416  0.58878  0.25205  1.0000
  N   N23       1.0  0.45387  0.70822  0.29726  1.0000
  C   C71       1.0  0.42404  0.70029  0.28986  1.0000
  H   H47       1.0  0.41771  0.68544  0.24039  1.0000
  N   N24       1.0  0.55249  0.29916  0.30357  1.0000
  C   C72       1.0  0.58223  0.30749  0.29767  1.0000
  H   H48       1.0  0.58846  0.32308  0.25013  1.0000
  N   N25       1.0  0.23282  0.29841  0.30303  1.0000
  C   C73       1.0  0.20907  0.27842  0.30007  1.0000
  H   H49       1.0  0.19043  0.28388  0.26242  1.0000
  N   N26       1.0  0.77414  0.70936  0.31097  1.0000
  C   C74       1.0  0.79770  0.72958  0.30766  1.0000
  H   H50       1.0  0.81641  0.72421  0.27023  1.0000
  N   N27       1.0  0.70884  0.23345  0.31121  1.0000
  C   C75       1.0  0.72905  0.20988  0.30808  1.0000
  H   H51       1.0  0.72366  0.19114  0.27082  1.0000
  N   N28       1.0  0.29790  0.77476  0.30294  1.0000
  C   C76       1.0  0.27788  0.79849  0.29967  1.0000
  H   H52       1.0  0.28331  0.81708  0.26182  1.0000
  N   N29       1.0  0.50221  0.97751  0.30293  1.0000
  C   C77       1.0  0.47925  0.99783  0.29744  1.0000
  H   H53       1.0  0.46175  0.99381  0.25381  1.0000
  N   N30       1.0  0.02982  0.50386  0.30109  1.0000
  C   C78       1.0  0.00950  0.48091  0.29511  1.0000
  H   H54       1.0  0.01357  0.46347  0.25130  1.0000
  C   C79       1.0  0.28003  0.03551  0.33885  1.0000
  C   C80       1.0  0.25895  0.05943  0.34528  1.0000
  C   C81       1.0  0.22734  0.05420  0.35057  1.0000
  C   C82       1.0  0.21682  0.02376  0.34074  1.0000
  C   C83       1.0  0.23742  0.99901  0.32873  1.0000
  C   C84       1.0  0.26896  0.00559  0.33091  1.0000
  H   H55       1.0  0.19394  0.01961  0.34265  1.0000
  H   H56       1.0  0.28442  0.98818  0.32959  1.0000
  H   H57       1.0  0.26696  0.08132  0.34705  1.0000
  C   C85       1.0  0.72627  0.97489  0.33070  1.0000
  C   C86       1.0  0.74657  0.95028  0.33638  1.0000
  C   C87       1.0  0.77810  0.95466  0.34898  1.0000
  C   C88       1.0  0.78955  0.98491  0.34463  1.0000
  C   C89       1.0  0.76972  0.01029  0.33322  1.0000
  C   C90       1.0  0.73804  0.00461  0.33210  1.0000
  H   H58       1.0  0.81246  0.98847  0.35011  1.0000
  H   H59       1.0  0.72307  0.02243  0.32937  1.0000
  H   H60       1.0  0.73790  0.92862  0.33596  1.0000
  C   C91       1.0  0.97219  0.28152  0.34132  1.0000
  C   C92       1.0  0.94826  0.26049  0.34846  1.0000
  C   C93       1.0  0.95348  0.22889  0.35438  1.0000
  C   C94       1.0  0.98387  0.21830  0.34430  1.0000
  C   C95       1.0  0.00860  0.23885  0.33164  1.0000
  C   C96       1.0  0.00208  0.27041  0.33327  1.0000
  H   H61       1.0  0.98800  0.19542  0.34658  1.0000
  H   H62       1.0  0.01951  0.28584  0.33149  1.0000
  H   H63       1.0  0.92637  0.26852  0.35037  1.0000
  C   C97       1.0  0.03291  0.72774  0.32766  1.0000
  C   C98       1.0  0.05745  0.74815  0.33237  1.0000
  C   C99       1.0  0.05303  0.77970  0.34460  1.0000
  C   C100      1.0  0.02272  0.79104  0.34072  1.0000
  C   C101      1.0  0.99735  0.77113  0.33015  1.0000
  C   C102      1.0  0.00315  0.73946  0.32939  1.0000
  H   H64       1.0  0.01911  0.81395  0.34594  1.0000
  H   H65       1.0  0.98537  0.72443  0.32740  1.0000
  H   H66       1.0  0.07914  0.73954  0.33189  1.0000
  C   C103      1.0  0.22632  0.53235  0.35262  1.0000
  C   C104      1.0  0.24700  0.55668  0.34661  1.0000
  C   C105      1.0  0.27851  0.55194  0.33496  1.0000
  C   C106      1.0  0.28958  0.52157  0.33971  1.0000
  C   C107      1.0  0.26946  0.49642  0.35090  1.0000
  C   C108      1.0  0.23783  0.50249  0.35193  1.0000
  H   H67       1.0  0.31247  0.51776  0.33478  1.0000
  H   H68       1.0  0.22269  0.48483  0.35502  1.0000
  H   H69       1.0  0.23864  0.57846  0.34640  1.0000
  C   C109      1.0  0.78115  0.47438  0.34778  1.0000
  C   C110      1.0  0.76012  0.45039  0.34157  1.0000
  C   C111      1.0  0.72847  0.45552  0.33673  1.0000
  C   C112      1.0  0.71790  0.48593  0.34648  1.0000
  C   C113      1.0  0.73843  0.51077  0.35795  1.0000
  C   C114      1.0  0.77000  0.50427  0.35569  1.0000
  H   H70       1.0  0.69500  0.49001  0.34481  1.0000
  H   H71       1.0  0.78541  0.52173  0.35682  1.0000
  H   H72       1.0  0.76820  0.42852  0.33975  1.0000
  C   C115      1.0  0.53195  0.78096  0.35435  1.0000
  C   C116      1.0  0.55628  0.76026  0.34936  1.0000
  C   C117      1.0  0.55159  0.72869  0.33850  1.0000
  C   C118      1.0  0.52119  0.71765  0.34299  1.0000
  C   C119      1.0  0.49601  0.73780  0.35328  1.0000
  C   C120      1.0  0.50209  0.76943  0.35356  1.0000
  H   H73       1.0  0.51739  0.69475  0.33853  1.0000
  H   H74       1.0  0.48442  0.78457  0.35597  1.0000
  H   H75       1.0  0.57807  0.76862  0.34940  1.0000
  C   C121      1.0  0.47401  0.22602  0.34445  1.0000
  C   C122      1.0  0.45004  0.24703  0.33746  1.0000
  C   C123      1.0  0.45517  0.27866  0.33241  1.0000
  C   C124      1.0  0.48553  0.28928  0.34274  1.0000
  C   C125      1.0  0.51034  0.26877  0.35501  1.0000
  C   C126      1.0  0.50388  0.23719  0.35291  1.0000
  H   H76       1.0  0.48960  0.31217  0.34098  1.0000
  H   H77       1.0  0.52134  0.22179  0.35482  1.0000
  H   H78       1.0  0.42817  0.23895  0.33529  1.0000
  C   C127      1.0  0.18840  0.22627  0.34314  1.0000
  C   C128      1.0  0.19708  0.19524  0.35163  1.0000
  C   C129      1.0  0.17576  0.17106  0.34837  1.0000
  C   C130      1.0  0.14461  0.17838  0.34150  1.0000
  C   C131      1.0  0.13444  0.20885  0.33660  1.0000
  C   C132      1.0  0.15671  0.23231  0.33461  1.0000
  H   H79       1.0  0.12899  0.16108  0.34071  1.0000
  H   H80       1.0  0.14949  0.25441  0.33187  1.0000
  H   H81       1.0  0.21969  0.18988  0.35640  1.0000
  C   C133      1.0  0.81779  0.78211  0.34960  1.0000
  C   C134      1.0  0.80877  0.81307  0.35726  1.0000
  C   C135      1.0  0.82981  0.83751  0.35378  1.0000
  C   C136      1.0  0.86106  0.83050  0.34763  1.0000
  C   C137      1.0  0.87152  0.80014  0.34309  1.0000
  C   C138      1.0  0.84954  0.77642  0.34124  1.0000
  H   H82       1.0  0.87654  0.84792  0.34672  1.0000
  H   H83       1.0  0.85704  0.75441  0.33856  1.0000
  H   H84       1.0  0.78608  0.81816  0.36142  1.0000
  C   C139      1.0  0.78143  0.18969  0.35079  1.0000
  C   C140      1.0  0.81242  0.19857  0.35897  1.0000
  C   C141      1.0  0.83671  0.17737  0.35569  1.0000
  C   C142      1.0  0.82960  0.14616  0.34946  1.0000
  C   C143      1.0  0.79919  0.13588  0.34475  1.0000
  C   C144      1.0  0.77558  0.15797  0.34255  1.0000
  H   H85       1.0  0.84696  0.13061  0.34866  1.0000
  H   H86       1.0  0.75354  0.15057  0.33972  1.0000
  H   H87       1.0  0.81766  0.22122  0.36318  1.0000
  C   C145      1.0  0.22560  0.81907  0.34209  1.0000
  C   C146      1.0  0.19459  0.81024  0.35007  1.0000
  C   C147      1.0  0.17027  0.83141  0.34648  1.0000
  C   C148      1.0  0.17749  0.86261  0.33986  1.0000
  C   C149      1.0  0.20792  0.87295  0.33531  1.0000
  C   C150      1.0  0.23149  0.85078  0.33363  1.0000
  H   H88       1.0  0.16014  0.87816  0.33892  1.0000
  H   H89       1.0  0.25356  0.85810  0.33101  1.0000
  H   H90       1.0  0.18938  0.78759  0.35442  1.0000
  C   C151      1.0  0.31607  0.72424  0.34358  1.0000
  C   C152      1.0  0.30773  0.69317  0.33364  1.0000
  C   C153      1.0  0.32934  0.66925  0.33400  1.0000
  C   C154      1.0  0.36046  0.67693  0.33874  1.0000
  C   C155      1.0  0.37028  0.70753  0.34325  1.0000
  C   C156      1.0  0.34775  0.73072  0.34738  1.0000
  H   H91       1.0  0.37627  0.65982  0.33821  1.0000
  H   H92       1.0  0.35462  0.75289  0.35293  1.0000
  H   H93       1.0  0.28524  0.68761  0.32721  1.0000
  C   C157      1.0  0.69036  0.28387  0.35118  1.0000
  C   C158      1.0  0.69847  0.31496  0.34046  1.0000
  C   C159      1.0  0.67670  0.33871  0.34055  1.0000
  C   C160      1.0  0.64565  0.33085  0.34592  1.0000
  C   C161      1.0  0.63599  0.30018  0.35092  1.0000
  C   C162      1.0  0.65872  0.27717  0.35523  1.0000
  H   H94       1.0  0.62975  0.34788  0.34522  1.0000
  H   H95       1.0  0.65203  0.25495  0.36093  1.0000
  H   H96       1.0  0.72091  0.32065  0.33345  1.0000
  C   C163      1.0  0.72369  0.69089  0.35114  1.0000
  C   C164      1.0  0.69261  0.69904  0.34039  1.0000
  C   C165      1.0  0.66878  0.67734  0.34079  1.0000
  C   C166      1.0  0.67663  0.64627  0.34652  1.0000
  C   C167      1.0  0.70728  0.63655  0.35158  1.0000
  C   C168      1.0  0.73033  0.65924  0.35557  1.0000
  H   H97       1.0  0.65957  0.63040  0.34603  1.0000
  H   H98       1.0  0.75254  0.65253  0.36137  1.0000
  H   H99       1.0  0.68698  0.72148  0.33322  1.0000
  C   C169      1.0  0.28334  0.31657  0.34318  1.0000
  C   C170      1.0  0.31442  0.30827  0.33318  1.0000
  C   C171      1.0  0.33826  0.32996  0.33321  1.0000
  C   C172      1.0  0.33056  0.36106  0.33766  1.0000
  C   C173      1.0  0.29995  0.37081  0.34220  1.0000
  C   C174      1.0  0.27680  0.34824  0.34668  1.0000
  H   H100      1.0  0.34765  0.37690  0.33692  1.0000
  H   H101      1.0  0.25462  0.35508  0.35225  1.0000
  H   H102      1.0  0.32003  0.28580  0.32684  1.0000
  C   C175      1.0  0.44480  0.10171  0.35071  1.0000
  C   C176      1.0  0.41381  0.09357  0.34347  1.0000
  C   C177      1.0  0.40475  0.06279  0.33854  1.0000
  C   C178      1.0  0.42727  0.04001  0.34212  1.0000
  C   C179      1.0  0.45840  0.04749  0.34736  1.0000
  C   C180      1.0  0.46685  0.07842  0.35163  1.0000
  H   H103      1.0  0.42083  0.01763  0.34363  1.0000
  H   H104      1.0  0.48944  0.08409  0.35241  1.0000
  H   H105      1.0  0.39758  0.11029  0.34187  1.0000
  C   C181      1.0  0.56380  0.90453  0.35630  1.0000
  C   C182      1.0  0.59440  0.91303  0.34222  1.0000
  C   C183      1.0  0.60288  0.94382  0.33291  1.0000
  C   C184      1.0  0.58018  0.96635  0.33914  1.0000
  C   C185      1.0  0.54946  0.95848  0.35306  1.0000
  C   C186      1.0  0.54143  0.92749  0.35966  1.0000
  H   H106      1.0  0.58604  0.98874  0.33085  1.0000
  H   H107      1.0  0.51915  0.92165  0.37047  1.0000
  H   H108      1.0  0.61078  0.89655  0.33893  1.0000
  C   C187      1.0  0.90575  0.44611  0.34940  1.0000
  C   C188      1.0  0.91402  0.41513  0.34287  1.0000
  C   C189      1.0  0.94482  0.40619  0.33770  1.0000
  C   C190      1.0  0.96752  0.42879  0.34031  1.0000
  C   C191      1.0  0.95991  0.45991  0.34495  1.0000
  C   C192      1.0  0.92896  0.46824  0.34931  1.0000
  H   H109      1.0  0.98993  0.42245  0.34199  1.0000
  H   H110      1.0  0.92321  0.49082  0.34974  1.0000
  H   H111      1.0  0.89736  0.39882  0.34219  1.0000
  C   C193      1.0  0.10300  0.56484  0.35723  1.0000
  C   C194      1.0  0.09474  0.59553  0.34360  1.0000
  C   C195      1.0  0.06403  0.60426  0.33375  1.0000
  C   C196      1.0  0.04133  0.58170  0.33910  1.0000
  C   C197      1.0  0.04896  0.55090  0.35266  1.0000
  C   C198      1.0  0.07987  0.54263  0.35982  1.0000
  H   H112      1.0  0.01901  0.58771  0.33023  1.0000
  H   H113      1.0  0.08553  0.52028  0.37012  1.0000
  H   H114      1.0  0.11134  0.61179  0.34079  1.0000
  N   N31       1.0  0.35478  0.06872  0.39422  1.0000
  C   C199      1.0  0.32463  0.06315  0.39956  1.0000
  H   H115      1.0  0.31201  0.07432  0.44693  1.0000
  N   N32       1.0  0.64421  0.97440  0.37974  1.0000
  C   C200      1.0  0.67349  0.98376  0.38235  1.0000
  H   H116      1.0  0.67991  0.99971  0.42865  1.0000
  N   N33       1.0  0.93905  0.35641  0.39499  1.0000
  C   C201      1.0  0.94465  0.32629  0.40117  1.0000
  H   H117      1.0  0.93349  0.31382  0.44890  1.0000
  N   N34       1.0  0.03331  0.64576  0.37846  1.0000
  C   C202      1.0  0.02388  0.67503  0.37999  1.0000
  H   H118      1.0  0.00764  0.68150  0.42532  1.0000
  C   C203      1.0  0.13392  0.55616  0.36441  1.0000
  C   C204      1.0  0.19482  0.53850  0.35850  1.0000
  N   N35       1.0  0.18524  0.56186  0.41113  1.0000
  C   C205      1.0  0.15599  0.57136  0.41776  1.0000
  C   C206      1.0  0.14977  0.59458  0.47787  1.0000
  C   C207      1.0  0.13165  0.58973  0.55801  1.0000
  H   H119      1.0  0.11367  0.60680  0.56102  1.0000
  H   H120      1.0  0.14590  0.59189  0.61783  1.0000
  H   H121      1.0  0.12106  0.56725  0.55904  1.0000
  O   O13       1.0  0.16498  0.61784  0.47330  1.0000
  C   C208      1.0  0.87470  0.45471  0.35240  1.0000
  C   C209      1.0  0.81272  0.46824  0.34601  1.0000
  N   N36       1.0  0.83146  0.48174  0.40671  1.0000
  C   C210      1.0  0.86186  0.47628  0.41279  1.0000
  C   C211      1.0  0.87808  0.49021  0.48132  1.0000
  C   C212      1.0  0.88234  0.47313  0.56391  1.0000
  H   H122      1.0  0.89079  0.45025  0.54996  1.0000
  H   H123      1.0  0.86091  0.47133  0.60074  1.0000
  H   H124      1.0  0.89902  0.48447  0.60678  1.0000
  O   O14       1.0  0.87360  0.51747  0.49135  1.0000
  C   C213      1.0  0.55537  0.87354  0.36387  1.0000
  C   C214      1.0  0.53806  0.81251  0.35926  1.0000
  N   N37       1.0  0.56142  0.82235  0.41150  1.0000
  C   C215      1.0  0.57077  0.85168  0.41746  1.0000
  C   C216      1.0  0.59400  0.85820  0.47724  1.0000
  C   C217      1.0  0.58902  0.87627  0.55744  1.0000
  H   H125      1.0  0.60613  0.89420  0.56095  1.0000
  H   H126      1.0  0.59099  0.86199  0.61724  1.0000
  H   H127      1.0  0.56657  0.88694  0.55806  1.0000
  O   O15       1.0  0.61723  0.84291  0.47361  1.0000
  C   C218      1.0  0.45357  0.13272  0.35262  1.0000
  C   C219      1.0  0.46783  0.19447  0.34341  1.0000
  N   N38       1.0  0.48085  0.17599  0.40568  1.0000
  C   C220      1.0  0.47503  0.14571  0.41304  1.0000
  C   C221      1.0  0.48853  0.13001  0.48321  1.0000
  C   C222      1.0  0.47121  0.12210  0.56278  1.0000
  H   H128      1.0  0.44673  0.12184  0.55002  1.0000
  H   H129      1.0  0.47577  0.13837  0.61661  1.0000
  H   H130      1.0  0.47787  0.09945  0.58546  1.0000
  O   O16       1.0  0.51607  0.13268  0.49198  1.0000
  C   C223      1.0  0.20863  0.08049  0.36406  1.0000
  C   C224      1.0  0.18522  0.14008  0.35366  1.0000
  N   N39       1.0  0.20334  0.13105  0.42254  1.0000
  C   C225      1.0  0.21480  0.10248  0.43235  1.0000
  C   C226      1.0  0.23322  0.09722  0.50647  1.0000
  C   C227      1.0  0.22744  0.07305  0.57047  1.0000
  H   H131      1.0  0.20784  0.05918  0.55150  1.0000
  H   H132      1.0  0.22304  0.08274  0.63683  1.0000
  H   H133      1.0  0.24733  0.05828  0.57465  1.0000
  O   O17       1.0  0.25349  0.11538  0.52366  1.0000
  C   C228      1.0  0.79596  0.92788  0.36397  1.0000
  C   C229      1.0  0.81995  0.86843  0.35745  1.0000
  N   N40       1.0  0.79986  0.87713  0.42184  1.0000
  C   C230      1.0  0.78796  0.90558  0.42965  1.0000
  C   C231      1.0  0.76771  0.91052  0.49963  1.0000
  C   C232      1.0  0.77247  0.93375  0.56730  1.0000
  H   H134      1.0  0.79261  0.94754  0.55356  1.0000
  H   H135      1.0  0.77531  0.92317  0.63320  1.0000
  H   H136      1.0  0.75273  0.94878  0.56948  1.0000
  O   O18       1.0  0.74704  0.89230  0.51134  1.0000
  C   C233      1.0  0.92722  0.21023  0.36846  1.0000
  C   C234      1.0  0.86764  0.18693  0.35993  1.0000
  N   N41       1.0  0.87688  0.20510  0.42846  1.0000
  C   C235      1.0  0.90549  0.21653  0.43736  1.0000
  C   C236      1.0  0.91103  0.23499  0.51119  1.0000
  C   C237      1.0  0.93535  0.22915  0.57464  1.0000
  H   H137      1.0  0.94911  0.20952  0.55539  1.0000
  H   H138      1.0  0.92583  0.22480  0.64123  1.0000
  H   H139      1.0  0.95019  0.24900  0.57845  1.0000
  O   O19       1.0  0.89295  0.25530  0.52883  1.0000
  C   C238      1.0  0.07985  0.79761  0.35906  1.0000
  C   C239      1.0  0.13930  0.82166  0.35100  1.0000
  N   N42       1.0  0.13075  0.80163  0.41573  1.0000
  C   C240      1.0  0.10232  0.78970  0.42429  1.0000
  C   C241      1.0  0.09752  0.76951  0.49449  1.0000
  C   C242      1.0  0.07489  0.77485  0.56357  1.0000
  H   H140      1.0  0.06090  0.79482  0.54930  1.0000
  H   H141      1.0  0.08603  0.77833  0.62840  1.0000
  H   H142      1.0  0.05995  0.75511  0.56849  1.0000
  O   O20       1.0  0.11610  0.74923  0.50726  1.0000
  N   N43       1.0  0.31596  0.58754  0.38741  1.0000
  C   C243      1.0  0.32877  0.61571  0.39198  1.0000
  H   H143      1.0  0.34250  0.62095  0.44524  1.0000
  N   N44       1.0  0.69132  0.42024  0.39263  1.0000
  C   C244      1.0  0.67823  0.39222  0.39842  1.0000
  H   H144      1.0  0.66534  0.38701  0.45352  1.0000
  N   N45       1.0  0.58688  0.69099  0.39146  1.0000
  C   C245      1.0  0.61492  0.67790  0.39667  1.0000
  H   H145      1.0  0.61991  0.66420  0.45020  1.0000
  N   N46       1.0  0.41959  0.31557  0.38788  1.0000
  C   C246      1.0  0.39146  0.32843  0.39303  1.0000
  H   H146      1.0  0.38598  0.34130  0.44795  1.0000
  N   N47       1.0  0.20749  0.95658  0.38072  1.0000
  C   C247      1.0  0.19958  0.92673  0.38710  1.0000
  H   H147      1.0  0.18420  0.92033  0.43504  1.0000
  N   N48       1.0  0.79893  0.05242  0.39074  1.0000
  C   C248      1.0  0.80665  0.08228  0.39841  1.0000
  H   H148      1.0  0.82096  0.08879  0.44904  1.0000
  N   N49       1.0  0.05098  0.20891  0.38353  1.0000
  C   C249      1.0  0.08080  0.20089  0.38950  1.0000
  H   H149      1.0  0.08723  0.18557  0.43755  1.0000
  N   N50       1.0  0.95516  0.80035  0.38759  1.0000
  C   C250      1.0  0.92527  0.80799  0.39560  1.0000
  H   H150      1.0  0.91882  0.82243  0.44597  1.0000
  C   C251      1.0  0.27915  0.46526  0.35728  1.0000
  C   C252      1.0  0.29325  0.40264  0.34491  1.0000
  N   N51       1.0  0.27393  0.41366  0.40820  1.0000
  C   C253      1.0  0.26641  0.44354  0.41801  1.0000
  C   C254      1.0  0.24755  0.45072  0.48956  1.0000
  C   C255      1.0  0.25753  0.46958  0.56385  1.0000
  H   H151      1.0  0.28003  0.47937  0.55219  1.0000
  H   H152      1.0  0.25850  0.45609  0.62545  1.0000
  H   H153      1.0  0.24142  0.48817  0.57347  1.0000
  O   O21       1.0  0.22381  0.43651  0.49836  1.0000
  C   C256      1.0  0.72900  0.54203  0.36545  1.0000
  C   C257      1.0  0.71415  0.60467  0.35445  1.0000
  N   N52       1.0  0.73475  0.59382  0.41453  1.0000
  C   C258      1.0  0.74270  0.56399  0.42351  1.0000
  C   C259      1.0  0.76289  0.55694  0.49192  1.0000
  C   C260      1.0  0.75352  0.53946  0.56982  1.0000
  H   H154      1.0  0.73116  0.52904  0.56081  1.0000
  H   H155      1.0  0.75258  0.55410  0.62907  1.0000
  H   H156      1.0  0.76999  0.52135  0.58196  1.0000
  O   O22       1.0  0.78630  0.57184  0.49827  1.0000
  C   C261      1.0  0.46482  0.72816  0.35948  1.0000
  C   C262      1.0  0.40215  0.71415  0.34635  1.0000
  N   N53       1.0  0.41311  0.73361  0.40937  1.0000
  C   C263      1.0  0.44299  0.74109  0.41953  1.0000
  C   C264      1.0  0.45010  0.76015  0.49069  1.0000
  C   C265      1.0  0.46884  0.75039  0.56548  1.0000
  H   H157      1.0  0.47875  0.72791  0.55435  1.0000
  H   H158      1.0  0.45525  0.74948  0.62688  1.0000
  H   H159      1.0  0.48735  0.76659  0.57513  1.0000
  O   O23       1.0  0.43574  0.78383  0.49919  1.0000
  C   C266      1.0  0.54156  0.27825  0.36296  1.0000
  C   C267      1.0  0.60415  0.29323  0.35320  1.0000
  N   N54       1.0  0.59321  0.27272  0.41337  1.0000
  C   C268      1.0  0.56338  0.26471  0.42178  1.0000
  C   C269      1.0  0.55625  0.24467  0.49048  1.0000
  C   C270      1.0  0.53788  0.25366  0.56692  1.0000
  H   H160      1.0  0.52787  0.27621  0.55822  1.0000
  H   H161      1.0  0.55178  0.25396  0.62777  1.0000
  H   H162      1.0  0.51944  0.23733  0.57595  1.0000
  O   O24       1.0  0.57074  0.22099  0.49620  1.0000
  C   C271      1.0  0.25951  0.29378  0.34804  1.0000
  C   C272      1.0  0.21124  0.25003  0.34452  1.0000
  N   N55       1.0  0.23765  0.24580  0.39082  1.0000
  C   C273      1.0  0.26147  0.26569  0.39567  1.0000
  C   C274      1.0  0.28540  0.25820  0.45206  1.0000
  C   C275      1.0  0.28409  0.26953  0.54365  1.0000
  H   H163      1.0  0.30588  0.26592  0.57726  1.0000
  H   H164      1.0  0.26638  0.25775  0.58166  1.0000
  H   H165      1.0  0.27936  0.29392  0.54470  1.0000
  O   O25       1.0  0.29567  0.23248  0.44384  1.0000
  C   C276      1.0  0.74737  0.71386  0.35568  1.0000
  C   C277      1.0  0.79521  0.75810  0.35132  1.0000
  N   N56       1.0  0.76874  0.76218  0.39738  1.0000
  C   C278      1.0  0.74509  0.74208  0.40252  1.0000
  C   C279      1.0  0.72109  0.74946  0.45884  1.0000
  C   C280      1.0  0.72212  0.73844  0.55061  1.0000
  H   H166      1.0  0.70017  0.74200  0.58334  1.0000
  H   H167      1.0  0.73959  0.75047  0.58883  1.0000
  H   H168      1.0  0.72703  0.71409  0.55240  1.0000
  O   O26       1.0  0.71055  0.77499  0.44834  1.0000
  C   C281      1.0  0.71333  0.26023  0.35589  1.0000
  C   C282      1.0  0.75751  0.21235  0.35207  1.0000
  N   N57       1.0  0.76160  0.23884  0.39804  1.0000
  C   C283      1.0  0.74150  0.26249  0.40299  1.0000
  C   C284      1.0  0.74892  0.28654  0.45899  1.0000
  C   C285      1.0  0.73791  0.28519  0.55090  1.0000
  H   H169      1.0  0.74140  0.30704  0.58425  1.0000
  H   H170      1.0  0.75000  0.26764  0.58869  1.0000
  H   H171      1.0  0.71357  0.28020  0.55267  1.0000
  O   O27       1.0  0.77451  0.29707  0.44994  1.0000
  C   C286      1.0  0.29329  0.74810  0.34818  1.0000
  C   C287      1.0  0.24944  0.79631  0.34390  1.0000
  N   N58       1.0  0.24525  0.76995  0.39049  1.0000
  C   C288      1.0  0.26518  0.74617  0.39573  1.0000
  C   C289      1.0  0.25770  0.72232  0.45242  1.0000
  C   C290      1.0  0.26900  0.72378  0.54402  1.0000
  H   H172      1.0  0.26540  0.70204  0.57792  1.0000
  H   H173      1.0  0.25720  0.74154  0.58174  1.0000
  H   H174      1.0  0.29339  0.72853  0.54504  1.0000
  O   O28       1.0  0.23199  0.71201  0.44428  1.0000
  C   C291      1.0  0.52683  0.98118  0.35712  1.0000
  C   C292      1.0  0.48087  0.02458  0.34952  1.0000
  N   N59       1.0  0.50543  0.02814  0.40390  1.0000
  C   C293      1.0  0.52856  0.00786  0.41070  1.0000
  C   C294      1.0  0.55134  0.01389  0.47244  1.0000
  C   C295      1.0  0.55424  0.99642  0.55466  1.0000
  H   H175      1.0  0.54057  0.97567  0.55339  1.0000
  H   H176      1.0  0.54701  0.01008  0.61215  1.0000
  H   H177      1.0  0.57798  0.98995  0.56403  1.0000
  O   O29       1.0  0.56334  0.03900  0.47017  1.0000
  C   C296      1.0  0.02611  0.52840  0.35560  1.0000
  C   C297      1.0  0.98274  0.48244  0.34710  1.0000
  N   N60       1.0  0.97915  0.50689  0.40187  1.0000
  C   C298      1.0  0.99939  0.53007  0.40901  1.0000
  C   C299      1.0  0.99373  0.55291  0.47102  1.0000
  C   C300      1.0  0.00708  0.54944  0.55969  1.0000
  H   H178      1.0  0.03134  0.54433  0.55495  1.0000
  H   H179      1.0  0.99584  0.53113  0.59660  1.0000
  H   H180      1.0  0.00466  0.57051  0.59794  1.0000
  O   O30       1.0  0.96805  0.56366  0.47004  1.0000
