data_image0
_chemical_formula_structural       CNC3NC5H2C5H2CHN2CHNCHNCHNCHNCHNCHC2NC2NC3NC2NC2NC2NC2NCNC2NC2NC2NC2NC2NC2NC2NC2NC2NC2NC2NC2NC2NC2NC6H3C6H3C6H3C6H3CHCHC6H3C6H3C6H3C6H3C6H3C6H3C2NC2NC2NC2NC2NC2NC2NC2NC2NC2NC2NC2N2CHN2CHNCHCHNCHNCHNCHNCHNCHNCHNCH
_chemical_formula_sum              "C162 N54 H54"
_cell_length_a       37.1587
_cell_length_b       37.1588
_cell_length_c       14.789
_cell_angle_alpha    90
_cell_angle_beta     90
_cell_angle_gamma    120

_space_group_name_H-M_alt    "P 1"
_space_group_IT_number       1

loop_
  _space_group_symop_operation_xyz
  'x, y, z'

loop_
  _atom_site_type_symbol
  _atom_site_label
  _atom_site_symmetry_multiplicity
  _atom_site_fract_x
  _atom_site_fract_y
  _atom_site_fract_z
  _atom_site_occupancy
  C   C1        1.0  0.83178  0.04468  0.34738  1.0000
  N   N1        1.0  0.82189  0.02355  0.26776  1.0000
  C   C2        1.0  0.22720  0.04485  0.34276  1.0000
  C   C3        1.0  0.21469  0.02119  0.26182  1.0000
  C   C4        1.0  0.22250  0.03761  0.18147  1.0000
  N   N2        1.0  0.22959  0.05229  0.11070  1.0000
  C   C5        1.0  0.24920  0.15524  0.34740  1.0000
  C   C6        1.0  0.22757  0.11129  0.34540  1.0000
  C   C7        1.0  0.24924  0.08900  0.34568  1.0000
  C   C8        1.0  0.29318  0.11129  0.34722  1.0000
  C   C9        1.0  0.31544  0.15523  0.34852  1.0000
  H   H1        1.0  0.30911  0.09538  0.34720  1.0000
  H   H2        1.0  0.19573  0.09535  0.34398  1.0000
  C   C10       1.0  0.85379  0.08870  0.34741  1.0000
  C   C11       1.0  0.89773  0.11102  0.34539  1.0000
  C   C12       1.0  0.92003  0.15498  0.34570  1.0000
  C   C13       1.0  0.85378  0.15494  0.34860  1.0000
  C   C14       1.0  0.83213  0.11099  0.34890  1.0000
  H   H3        1.0  0.80028  0.09507  0.35032  1.0000
  H   H4        1.0  0.91367  0.09512  0.34395  1.0000
  C   C15       1.0  0.81920  0.02114  0.42781  1.0000
  H   H5        1.0  0.82566  0.03515  0.48979  1.0000
  N   N3        1.0  0.21732  0.02358  0.42233  1.0000
  N   N4        1.0  0.19392  0.37422  0.27176  1.0000
  C   C16       1.0  0.21506  0.41640  0.26621  1.0000
  H   H6        1.0  0.22192  0.43040  0.20422  1.0000
  N   N5        1.0  0.63476  0.81441  0.27167  1.0000
  C   C17       1.0  0.59258  0.79334  0.26610  1.0000
  H   H7        1.0  0.57858  0.78619  0.20409  1.0000
  N   N6        1.0  0.19461  0.81515  0.27178  1.0000
  C   C18       1.0  0.21567  0.79404  0.26624  1.0000
  H   H8        1.0  0.22285  0.78721  0.20425  1.0000
  N   N7        1.0  0.82158  0.62824  0.27177  1.0000
  C   C19       1.0  0.80046  0.58606  0.26626  1.0000
  H   H9        1.0  0.79360  0.57204  0.20427  1.0000
  N   N8        1.0  0.38079  0.18811  0.27171  1.0000
  C   C20       1.0  0.42297  0.20916  0.26617  1.0000
  H   H10       1.0  0.43698  0.21633  0.20418  1.0000
  N   N9        1.0  0.82090  0.18743  0.27188  1.0000
  C   C21       1.0  0.79983  0.20855  0.26641  1.0000
  H   H11       1.0  0.79267  0.21541  0.20444  1.0000
  C   C22       1.0  0.18360  0.22065  0.34277  1.0000
  C   C23       1.0  0.22719  0.17724  0.34737  1.0000
  N   N10       1.0  0.21593  0.18712  0.26776  1.0000
  C   C24       1.0  0.19477  0.20817  0.26183  1.0000
  C   C25       1.0  0.18616  0.21599  0.18149  1.0000
  N   N11       1.0  0.17857  0.22308  0.11072  1.0000
  C   C26       1.0  0.78832  0.95768  0.34277  1.0000
  C   C27       1.0  0.80083  0.98134  0.26183  1.0000
  C   C28       1.0  0.79301  0.96491  0.18148  1.0000
  N   N12       1.0  0.78593  0.95023  0.11072  1.0000
  C   C29       1.0  0.05132  0.82542  0.34277  1.0000
  C   C30       1.0  0.96432  0.78186  0.34737  1.0000
  N   N13       1.0  0.98546  0.79310  0.26776  1.0000
  C   C31       1.0  0.02766  0.81425  0.26183  1.0000
  C   C32       1.0  0.04409  0.82286  0.18148  1.0000
  N   N14       1.0  0.05878  0.83045  0.11072  1.0000
  C   C33       1.0  0.83190  0.78182  0.34277  1.0000
  C   C34       1.0  0.78837  0.82529  0.34738  1.0000
  N   N15       1.0  0.79961  0.81540  0.26776  1.0000
  C   C35       1.0  0.82074  0.79433  0.26182  1.0000
  C   C36       1.0  0.82935  0.78651  0.18147  1.0000
  N   N16       1.0  0.83695  0.77943  0.11071  1.0000
  C   C37       1.0  0.18371  0.95785  0.34739  1.0000
  N   N17       1.0  0.19360  0.97898  0.26776  1.0000
  C   C38       1.0  0.96417  0.17710  0.34277  1.0000
  C   C39       1.0  0.05118  0.22062  0.34739  1.0000
  N   N18       1.0  0.03004  0.20938  0.26777  1.0000
  C   C40       1.0  0.98783  0.18825  0.26184  1.0000
  C   C41       1.0  0.97141  0.17964  0.18149  1.0000
  N   N19       1.0  0.95673  0.17205  0.11072  1.0000
  C   C42       1.0  0.22974  0.57418  0.34480  1.0000
  C   C43       1.0  0.22862  0.64984  0.35021  1.0000
  N   N20       1.0  0.23053  0.63191  0.27140  1.0000
  C   C44       1.0  0.22913  0.59477  0.26433  1.0000
  C   C45       1.0  0.23404  0.58379  0.18370  1.0000
  N   N21       1.0  0.23864  0.57412  0.11282  1.0000
  C   C46       1.0  0.43479  0.65019  0.34497  1.0000
  C   C47       1.0  0.35936  0.57350  0.35006  1.0000
  N   N22       1.0  0.37714  0.59324  0.27116  1.0000
  C   C48       1.0  0.41428  0.62902  0.26436  1.0000
  C   C49       1.0  0.42533  0.64499  0.18382  1.0000
  N   N23       1.0  0.43504  0.65934  0.11301  1.0000
  C   C50       1.0  0.35883  0.77953  0.34432  1.0000
  C   C51       1.0  0.43543  0.78042  0.35035  1.0000
  N   N24       1.0  0.41579  0.77869  0.27136  1.0000
  C   C52       1.0  0.38012  0.78020  0.26403  1.0000
  C   C53       1.0  0.36424  0.77529  0.18340  1.0000
  N   N25       1.0  0.34997  0.77068  0.11252  1.0000
  C   C54       1.0  0.78602  0.42841  0.34450  1.0000
  C   C55       1.0  0.78685  0.35273  0.34957  1.0000
  N   N26       1.0  0.78522  0.37075  0.27077  1.0000
  C   C56       1.0  0.78669  0.40793  0.26398  1.0000
  C   C57       1.0  0.78207  0.41925  0.18348  1.0000
  N   N27       1.0  0.77769  0.42919  0.11270  1.0000
  C   C58       1.0  0.58065  0.35230  0.34455  1.0000
  C   C59       1.0  0.65629  0.42886  0.34983  1.0000
  N   N28       1.0  0.63827  0.40927  0.27096  1.0000
  C   C60       1.0  0.60112  0.37353  0.26408  1.0000
  C   C61       1.0  0.58981  0.35764  0.18354  1.0000
  N   N29       1.0  0.57989  0.34337  0.11273  1.0000
  C   C62       1.0  0.65664  0.22302  0.34438  1.0000
  C   C63       1.0  0.58015  0.22207  0.35041  1.0000
  N   N30       1.0  0.59967  0.22391  0.27125  1.0000
  C   C64       1.0  0.63543  0.22255  0.26409  1.0000
  C   C65       1.0  0.65130  0.22727  0.18349  1.0000
  N   N31       1.0  0.66557  0.23173  0.11264  1.0000
  C   C66       1.0  0.09519  0.24263  0.34743  1.0000
  C   C67       1.0  0.11751  0.22100  0.34542  1.0000
  C   C68       1.0  0.16147  0.24267  0.34570  1.0000
  C   C69       1.0  0.18311  0.28661  0.34725  1.0000
  C   C70       1.0  0.16143  0.30887  0.34858  1.0000
  C   C71       1.0  0.11748  0.28658  0.34889  1.0000
  H   H12       1.0  0.21496  0.30255  0.34724  1.0000
  H   H13       1.0  0.10157  0.30251  0.35029  1.0000
  H   H14       1.0  0.10161  0.18916  0.34398  1.0000
  C   C72       1.0  0.76635  0.84729  0.34741  1.0000
  C   C73       1.0  0.78798  0.89124  0.34543  1.0000
  C   C74       1.0  0.76630  0.91353  0.34569  1.0000
  C   C75       1.0  0.72236  0.89123  0.34721  1.0000
  C   C76       1.0  0.70011  0.84728  0.34851  1.0000
  C   C77       1.0  0.72241  0.82563  0.34884  1.0000
  H   H15       1.0  0.70642  0.90714  0.34718  1.0000
  H   H16       1.0  0.70648  0.79379  0.35023  1.0000
  H   H17       1.0  0.81981  0.90718  0.34401  1.0000
  C   C78       1.0  0.16170  0.91384  0.34742  1.0000
  C   C79       1.0  0.11775  0.89151  0.34541  1.0000
  C   C80       1.0  0.09546  0.84755  0.34570  1.0000
  C   C81       1.0  0.11777  0.82592  0.34726  1.0000
  C   C82       1.0  0.16171  0.84761  0.34858  1.0000
  C   C83       1.0  0.18336  0.89155  0.34889  1.0000
  H   H18       1.0  0.10186  0.79407  0.34725  1.0000
  H   H19       1.0  0.21521  0.90747  0.35029  1.0000
  H   H20       1.0  0.10181  0.90741  0.34398  1.0000
  C   C84       1.0  0.92030  0.75985  0.34741  1.0000
  C   C85       1.0  0.89798  0.78147  0.34540  1.0000
  C   C86       1.0  0.85402  0.75980  0.34568  1.0000
  C   C87       1.0  0.83238  0.71586  0.34722  1.0000
  C   C88       1.0  0.85407  0.69360  0.34854  1.0000
  C   C89       1.0  0.89802  0.71590  0.34886  1.0000
  H   H21       1.0  0.80053  0.69992  0.34722  1.0000
  H   H22       1.0  0.91394  0.69998  0.35026  1.0000
  H   H23       1.0  0.91388  0.81331  0.34398  1.0000
  C   C90       1.0  0.29315  0.17689  0.34885  1.0000
  H   H24       1.0  0.30908  0.20874  0.35025  1.0000
  C   C91       1.0  0.89773  0.17662  0.34727  1.0000
  H   H25       1.0  0.91363  0.20847  0.34728  1.0000
  C   C92       1.0  0.31565  0.54987  0.34955  1.0000
  C   C93       1.0  0.29330  0.57140  0.34884  1.0000
  C   C94       1.0  0.24945  0.55015  0.34717  1.0000
  C   C95       1.0  0.22759  0.50625  0.34558  1.0000
  C   C96       1.0  0.24928  0.48390  0.34672  1.0000
  C   C97       1.0  0.29333  0.50597  0.34876  1.0000
  H   H26       1.0  0.19577  0.49056  0.34401  1.0000
  H   H27       1.0  0.30924  0.49006  0.34935  1.0000
  H   H28       1.0  0.30936  0.60332  0.34900  1.0000
  C   C98       1.0  0.45908  0.76039  0.34992  1.0000
  C   C99       1.0  0.43756  0.71652  0.34941  1.0000
  C   C100      1.0  0.45882  0.69393  0.34746  1.0000
  C   C101      1.0  0.50271  0.71598  0.34554  1.0000
  C   C102      1.0  0.52506  0.76002  0.34660  1.0000
  C   C103      1.0  0.50298  0.78198  0.34869  1.0000
  H   H29       1.0  0.51841  0.69985  0.34384  1.0000
  H   H30       1.0  0.51888  0.81381  0.34918  1.0000
  H   H31       1.0  0.40564  0.70064  0.34971  1.0000
  C   C104      1.0  0.24864  0.69351  0.34974  1.0000
  C   C105      1.0  0.29251  0.71588  0.34886  1.0000
  C   C106      1.0  0.31508  0.75974  0.34717  1.0000
  C   C107      1.0  0.29301  0.78155  0.34549  1.0000
  C   C108      1.0  0.24897  0.75984  0.34677  1.0000
  C   C109      1.0  0.22703  0.71580  0.34895  1.0000
  H   H32       1.0  0.30911  0.81338  0.34375  1.0000
  H   H33       1.0  0.19520  0.69986  0.34960  1.0000
  H   H34       1.0  0.30840  0.69985  0.34891  1.0000
  C   C110      1.0  0.69998  0.45255  0.35006  1.0000
  C   C111      1.0  0.72237  0.43107  0.34925  1.0000
  C   C112      1.0  0.76622  0.45236  0.34762  1.0000
  C   C113      1.0  0.78803  0.49626  0.34574  1.0000
  C   C114      1.0  0.76629  0.51857  0.34687  1.0000
  C   C115      1.0  0.72225  0.49645  0.34891  1.0000
  H   H35       1.0  0.81985  0.51198  0.34401  1.0000
  H   H36       1.0  0.70630  0.51233  0.34931  1.0000
  H   H37       1.0  0.70635  0.39915  0.34923  1.0000
  C   C116      1.0  0.55649  0.24212  0.35013  1.0000
  C   C117      1.0  0.57797  0.28599  0.34944  1.0000
  C   C118      1.0  0.55669  0.30856  0.34753  1.0000
  C   C119      1.0  0.51280  0.28648  0.34549  1.0000
  C   C120      1.0  0.49048  0.24244  0.34673  1.0000
  C   C121      1.0  0.51259  0.22050  0.34898  1.0000
  H   H38       1.0  0.49708  0.30258  0.34365  1.0000
  H   H39       1.0  0.49670  0.18868  0.34950  1.0000
  H   H40       1.0  0.60990  0.30188  0.34958  1.0000
  C   C122      1.0  0.76683  0.30904  0.34978  1.0000
  C   C123      1.0  0.72296  0.28666  0.34876  1.0000
  C   C124      1.0  0.70039  0.24281  0.34734  1.0000
  C   C125      1.0  0.72247  0.22099  0.34591  1.0000
  C   C126      1.0  0.76651  0.24271  0.34704  1.0000
  C   C127      1.0  0.78844  0.28675  0.34895  1.0000
  H   H41       1.0  0.70636  0.18917  0.34430  1.0000
  H   H42       1.0  0.82027  0.30270  0.34944  1.0000
  H   H43       1.0  0.70707  0.30269  0.34858  1.0000
  C   C128      1.0  0.18351  0.35299  0.35140  1.0000
  C   C129      1.0  0.22716  0.43993  0.34666  1.0000
  N   N32       1.0  0.21682  0.41884  0.42634  1.0000
  C   C130      1.0  0.19563  0.37665  0.43235  1.0000
  C   C131      1.0  0.18756  0.36026  0.51273  1.0000
  N   N33       1.0  0.18032  0.34560  0.58353  1.0000
  C   C132      1.0  0.65598  0.82522  0.35131  1.0000
  C   C133      1.0  0.56904  0.78189  0.34653  1.0000
  N   N34       1.0  0.59012  0.79264  0.42621  1.0000
  C   C134      1.0  0.63231  0.81366  0.43225  1.0000
  C   C135      1.0  0.64870  0.82200  0.51264  1.0000
  N   N35       1.0  0.66335  0.82941  0.58344  1.0000
  C   C136      1.0  0.18376  0.82554  0.35141  1.0000
  C   C137      1.0  0.22709  0.78193  0.34669  1.0000
  N   N36       1.0  0.21632  0.79224  0.42637  1.0000
  C   C138      1.0  0.19530  0.81342  0.43236  1.0000
  C   C139      1.0  0.18695  0.82147  0.51275  1.0000
  N   N37       1.0  0.17954  0.82871  0.58354  1.0000
  C   C140      1.0  0.83200  0.64948  0.35139  1.0000
  C   C141      1.0  0.78837  0.56254  0.34672  1.0000
  N   N38       1.0  0.79872  0.58364  0.42639  1.0000
  C   C142      1.0  0.81990  0.62584  0.43235  1.0000
  C   C143      1.0  0.82798  0.64225  0.51273  1.0000
  N   N39       1.0  0.83522  0.65691  0.58351  1.0000
  C   C144      1.0  0.35956  0.17728  0.35135  1.0000
  C   C145      1.0  0.44650  0.22056  0.34662  1.0000
  N   N40       1.0  0.42541  0.20980  0.42630  1.0000
  C   C146      1.0  0.38322  0.18880  0.43230  1.0000
  C   C147      1.0  0.36682  0.18046  0.51268  1.0000
  N   N41       1.0  0.35217  0.17305  0.58347  1.0000
  C   C148      1.0  0.83173  0.17701  0.35148  1.0000
  C   C149      1.0  0.78840  0.22062  0.34689  1.0000
  N   N42       1.0  0.79916  0.21027  0.42654  1.0000
  C   C150      1.0  0.82018  0.18910  0.43247  1.0000
  C   C151      1.0  0.82853  0.18102  0.51283  1.0000
  N   N43       1.0  0.83595  0.17377  0.58360  1.0000
  N   N44       1.0  0.19500  0.21078  0.42233  1.0000
  C   C152      1.0  0.21620  0.18980  0.42781  1.0000
  H   H44       1.0  0.22376  0.18334  0.48979  1.0000
  N   N45       1.0  0.79820  0.97895  0.42233  1.0000
  N   N46       1.0  0.03005  0.81403  0.42233  1.0000
  C   C153      1.0  0.98786  0.79284  0.42781  1.0000
  H   H45       1.0  0.97385  0.78528  0.48979  1.0000
  N   N47       1.0  0.82051  0.79170  0.42233  1.0000
  C   C154      1.0  0.79933  0.81271  0.42781  1.0000
  H   H46       1.0  0.79177  0.81917  0.48979  1.0000
  C   C155      1.0  0.19630  0.98139  0.42782  1.0000
  H   H47       1.0  0.18985  0.96738  0.48979  1.0000
  N   N48       1.0  0.98545  0.18850  0.42234  1.0000
  C   C156      1.0  0.02763  0.20967  0.42782  1.0000
  H   H48       1.0  0.04164  0.21723  0.48980  1.0000
  N   N49       1.0  0.23178  0.59416  0.42346  1.0000
  C   C157      1.0  0.22941  0.62934  0.42994  1.0000
  H   H49       1.0  0.23425  0.64346  0.49161  1.0000
  N   N50       1.0  0.41476  0.63217  0.42356  1.0000
  C   C158      1.0  0.37972  0.59451  0.43010  1.0000
  H   H50       1.0  0.36536  0.58534  0.49156  1.0000
  N   N51       1.0  0.37650  0.77720  0.42317  1.0000
  C   C159      1.0  0.41406  0.77960  0.42999  1.0000
  H   H51       1.0  0.42301  0.77427  0.49157  1.0000
  N   N52       1.0  0.78361  0.40823  0.42314  1.0000
  C   C160      1.0  0.78599  0.37305  0.42962  1.0000
  H   H52       1.0  0.78065  0.35866  0.49107  1.0000
  N   N53       1.0  0.60081  0.37002  0.42325  1.0000
  C   C161      1.0  0.63600  0.40756  0.42977  1.0000
  H   H53       1.0  0.65028  0.41658  0.49136  1.0000
  N   N54       1.0  0.63894  0.22524  0.42331  1.0000
  C   C162      1.0  0.60140  0.22289  0.43017  1.0000
  H   H54       1.0  0.59239  0.22804  0.49186  1.0000
