data_image0
_chemical_formula_structural       C9NH3NHC5NH3NHC5NH3NHCN2CNC2O3CN2CNC2O3C2NC3H3NHC2NC3H3NHC2NC3H3NH
_chemical_formula_sum              "C42 N18 H24 O6"
_cell_length_a       29.0901
_cell_length_b       29.0909
_cell_length_c       15.0578
_cell_angle_alpha    90
_cell_angle_beta     90
_cell_angle_gamma    120.001

_space_group_name_H-M_alt    "P 1"
_space_group_IT_number       1

loop_
  _space_group_symop_operation_xyz
  'x, y, z'

loop_
  _atom_site_type_symbol
  _atom_site_label
  _atom_site_symmetry_multiplicity
  _atom_site_fract_x
  _atom_site_fract_y
  _atom_site_fract_z
  _atom_site_occupancy
  C   C1        1.0  0.36573  0.64647  0.42512  1.0000
  C   C2        1.0  0.36696  0.77307  0.41604  1.0000
  C   C3        1.0  0.62845  0.34963  0.23408  1.0000
  C   C4        1.0  0.62740  0.22310  0.24294  1.0000
  C   C5        1.0  0.45527  0.57670  0.31609  1.0000
  C   C6        1.0  0.48637  0.55416  0.29194  1.0000
  C   C7        1.0  0.51218  0.48568  0.31898  1.0000
  C   C8        1.0  0.57436  0.43963  0.27051  1.0000
  C   C9        1.0  0.57857  0.48422  0.22592  1.0000
  N   N1        1.0  0.54774  0.50474  0.25084  1.0000
  H   H1        1.0  0.60428  0.50116  0.17401  1.0000
  H   H2        1.0  0.45791  0.60735  0.27895  1.0000
  H   H3        1.0  0.51160  0.56977  0.23903  1.0000
  N   N2        1.0  0.60694  0.42017  0.24801  1.0000
  H   H4        1.0  0.64373  0.44637  0.23452  1.0000
  C   C10       1.0  0.41888  0.87754  0.31545  1.0000
  C   C11       1.0  0.44138  0.93117  0.29130  1.0000
  C   C12       1.0  0.50952  0.02553  0.31886  1.0000
  C   C13       1.0  0.55547  0.13375  0.27044  1.0000
  C   C14       1.0  0.51113  0.09332  0.22545  1.0000
  N   N3        1.0  0.49066  0.04198  0.25035  1.0000
  H   H5        1.0  0.49435  0.10204  0.17323  1.0000
  H   H6        1.0  0.38844  0.84949  0.27801  1.0000
  H   H7        1.0  0.42596  0.94075  0.23808  1.0000
  N   N4        1.0  0.57493  0.18579  0.24793  1.0000
  H   H8        1.0  0.54874  0.19632  0.23405  1.0000
  C   C15       1.0  0.11761  0.54022  0.31521  1.0000
  C   C16       1.0  0.06394  0.50906  0.29132  1.0000
  C   C17       1.0  0.96963  0.48300  0.31912  1.0000
  C   C18       1.0  0.86134  0.42076  0.27110  1.0000
  C   C19       1.0  0.90168  0.41666  0.22616  1.0000
  N   N5        1.0  0.95307  0.44753  0.25084  1.0000
  H   H9        1.0  0.89288  0.39105  0.17409  1.0000
  H   H10       1.0  0.14560  0.53772  0.27775  1.0000
  H   H11       1.0  0.05426  0.48393  0.23826  1.0000
  N   N6        1.0  0.80927  0.38815  0.24878  1.0000
  H   H12       1.0  0.79873  0.35143  0.23488  1.0000
  C   C20       1.0  0.27699  0.62956  0.42455  1.0000
  N   N7        1.0  0.31255  0.61228  0.42389  1.0000
  N   N8        1.0  0.38303  0.69931  0.42425  1.0000
  C   C21       1.0  0.34884  0.71831  0.42492  1.0000
  N   N9        1.0  0.29600  0.68274  0.42369  1.0000
  C   C22       1.0  0.40240  0.62835  0.41652  1.0000
  C   C23       1.0  0.22223  0.59294  0.41541  1.0000
  O   O1        1.0  0.32966  0.78783  0.40958  1.0000
  O   O2        1.0  0.20744  0.54087  0.40916  1.0000
  O   O3        1.0  0.45449  0.66565  0.41068  1.0000
  C   C24       1.0  0.71723  0.36663  0.23455  1.0000
  N   N10       1.0  0.68163  0.38386  0.23527  1.0000
  N   N11       1.0  0.61122  0.29679  0.23490  1.0000
  C   C25       1.0  0.64546  0.27786  0.23418  1.0000
  N   N12       1.0  0.69829  0.31346  0.23537  1.0000
  C   C26       1.0  0.59176  0.36771  0.24271  1.0000
  C   C27       1.0  0.77198  0.40332  0.24363  1.0000
  O   O4        1.0  0.66473  0.20839  0.24931  1.0000
  O   O5        1.0  0.78668  0.45537  0.24996  1.0000
  O   O6        1.0  0.53968  0.33039  0.24851  1.0000
  C   C28       1.0  0.41974  0.55641  0.38860  1.0000
  C   C29       1.0  0.48185  0.51030  0.34002  1.0000
  N   N13       1.0  0.44629  0.49124  0.40816  1.0000
  C   C30       1.0  0.41547  0.51177  0.43310  1.0000
  C   C31       1.0  0.50767  0.44182  0.36709  1.0000
  C   C32       1.0  0.53881  0.41932  0.34299  1.0000
  H   H13       1.0  0.48245  0.42622  0.42001  1.0000
  H   H14       1.0  0.53620  0.38869  0.38015  1.0000
  H   H15       1.0  0.38979  0.49484  0.48505  1.0000
  N   N14       1.0  0.38718  0.57589  0.41112  1.0000
  H   H16       1.0  0.35039  0.54970  0.42459  1.0000
  C   C33       1.0  0.43893  0.86236  0.38838  1.0000
  C   C34       1.0  0.48496  0.97057  0.33984  1.0000
  N   N15       1.0  0.50380  0.95413  0.40839  1.0000
  C   C35       1.0  0.48330  0.90279  0.43333  1.0000
  C   C36       1.0  0.55310  0.06493  0.36740  1.0000
  C   C37       1.0  0.57556  0.11857  0.34331  1.0000
  H   H17       1.0  0.56852  0.05536  0.42063  1.0000
  H   H18       1.0  0.60597  0.14663  0.38079  1.0000
  H   H19       1.0  0.50005  0.89408  0.48560  1.0000
  N   N16       1.0  0.41944  0.81034  0.41099  1.0000
  H   H20       1.0  0.44560  0.79978  0.42493  1.0000
  C   C38       1.0  0.13293  0.57566  0.38785  1.0000
  C   C39       1.0  0.02463  0.51341  0.33986  1.0000
  N   N17       1.0  0.04120  0.54886  0.40816  1.0000
  C   C40       1.0  0.09259  0.57973  0.43285  1.0000
  C   C41       1.0  0.93033  0.48736  0.36764  1.0000
  C   C42       1.0  0.87665  0.45619  0.34375  1.0000
  H   H21       1.0  0.94000  0.51247  0.42072  1.0000
  H   H22       1.0  0.84866  0.45866  0.38124  1.0000
  H   H23       1.0  0.10140  0.60532  0.48495  1.0000
  N   N18       1.0  0.18500  0.60819  0.41026  1.0000
  H   H24       1.0  0.19558  0.64492  0.42417  1.0000
