data_image0
_chemical_formula_structural       C2NCNH2C2NCNH2C2NCNH2C2NCNH2C2NCNH2C2NCNH2NCHNCHNCHNCHNCHNCHC2NCNH2C2NCNH2C2NCNH2C2NCNH2C2NCNH2C2NCNH2C6H3C6H3C6H3C6H3C6H3C6H3C6H3C6H3C6H3C6H3C6H3C6H3NCHNCHNCHNCHNCHNCHC2NCNH2C2NCNH2C2NCNH2C2NCNH2C2NCNH2C2NCNH2NCHNCHNCHNCHNCHNCH
_chemical_formula_sum              "C144 N54 H90"
_cell_length_a       39.3501
_cell_length_b       39.3501
_cell_length_c       14.7766
_cell_angle_alpha    90
_cell_angle_beta     90
_cell_angle_gamma    120

_space_group_name_H-M_alt    "P 1"
_space_group_IT_number       1

loop_
  _space_group_symop_operation_xyz
  'x, y, z'

loop_
  _atom_site_type_symbol
  _atom_site_label
  _atom_site_symmetry_multiplicity
  _atom_site_fract_x
  _atom_site_fract_y
  _atom_site_fract_z
  _atom_site_occupancy
  C   C1        1.0  0.27313  0.46020  0.34355  1.0000
  C   C2        1.0  0.20189  0.46001  0.34875  1.0000
  N   N1        1.0  0.21905  0.45966  0.26916  1.0000
  C   C3        1.0  0.25345  0.45931  0.26218  1.0000
  N   N2        1.0  0.26748  0.45966  0.17829  1.0000
  H   H1        1.0  0.29194  0.45965  0.16914  1.0000
  H   H2        1.0  0.25297  0.45950  0.12483  1.0000
  C   C4        1.0  0.57740  0.83539  0.34357  1.0000
  C   C5        1.0  0.57765  0.76440  0.34883  1.0000
  N   N3        1.0  0.57789  0.78183  0.26920  1.0000
  C   C6        1.0  0.57823  0.81658  0.26220  1.0000
  N   N4        1.0  0.57779  0.83020  0.17830  1.0000
  H   H3        1.0  0.57781  0.85468  0.16914  1.0000
  H   H4        1.0  0.57794  0.81585  0.12486  1.0000
  C   C7        1.0  0.20218  0.76447  0.34357  1.0000
  C   C8        1.0  0.27322  0.83571  0.34879  1.0000
  N   N5        1.0  0.25580  0.81850  0.26918  1.0000
  C   C9        1.0  0.22104  0.78410  0.26220  1.0000
  N   N6        1.0  0.20744  0.77001  0.17830  1.0000
  H   H5        1.0  0.18293  0.74560  0.16914  1.0000
  H   H6        1.0  0.22179  0.78453  0.12486  1.0000
  C   C10       1.0  0.76204  0.57988  0.34357  1.0000
  C   C11       1.0  0.83331  0.58014  0.34889  1.0000
  N   N7        1.0  0.81612  0.58040  0.26928  1.0000
  C   C12       1.0  0.78171  0.58074  0.26222  1.0000
  N   N8        1.0  0.76766  0.58031  0.17831  1.0000
  H   H7        1.0  0.74319  0.58030  0.16912  1.0000
  H   H8        1.0  0.78217  0.58044  0.12488  1.0000
  C   C13       1.0  0.45776  0.20466  0.34347  1.0000
  C   C14       1.0  0.45758  0.27571  0.34872  1.0000
  N   N9        1.0  0.45724  0.25822  0.26912  1.0000
  C   C15       1.0  0.45689  0.22347  0.26212  1.0000
  N   N10       1.0  0.45725  0.20980  0.17822  1.0000
  H   H9        1.0  0.45724  0.18533  0.16907  1.0000
  H   H10       1.0  0.45710  0.22416  0.12478  1.0000
  C   C16       1.0  0.83292  0.27562  0.34365  1.0000
  C   C17       1.0  0.76193  0.20434  0.34891  1.0000
  N   N11       1.0  0.77938  0.22153  0.26930  1.0000
  C   C18       1.0  0.81412  0.25595  0.26228  1.0000
  N   N12       1.0  0.82776  0.26999  0.17837  1.0000
  H   H11       1.0  0.85223  0.29445  0.16920  1.0000
  H   H12       1.0  0.81342  0.25547  0.12494  1.0000
  N   N13       1.0  0.15237  0.56920  0.27447  1.0000
  C   C19       1.0  0.15314  0.60398  0.26852  1.0000
  H   H13       1.0  0.15213  0.61484  0.20638  1.0000
  N   N14       1.0  0.46841  0.60567  0.27451  1.0000
  C   C20       1.0  0.43360  0.57168  0.26858  1.0000
  H   H14       1.0  0.42285  0.55971  0.20647  1.0000
  N   N15       1.0  0.43195  0.88519  0.27447  1.0000
  C   C21       1.0  0.46597  0.88443  0.26856  1.0000
  H   H15       1.0  0.47791  0.88558  0.20643  1.0000
  N   N16       1.0  0.88283  0.47091  0.27447  1.0000
  C   C22       1.0  0.88204  0.43612  0.26862  1.0000
  H   H16       1.0  0.88310  0.42527  0.20650  1.0000
  N   N17       1.0  0.56676  0.43442  0.27443  1.0000
  C   C23       1.0  0.60155  0.46842  0.26853  1.0000
  H   H17       1.0  0.61242  0.48029  0.20639  1.0000
  N   N18       1.0  0.60320  0.15484  0.27443  1.0000
  C   C24       1.0  0.56921  0.15566  0.26853  1.0000
  H   H18       1.0  0.55724  0.15448  0.20642  1.0000
  C   C25       1.0  0.05860  0.41219  0.34331  1.0000
  C   C26       1.0  0.97626  0.37093  0.34837  1.0000
  N   N19       1.0  0.99644  0.38164  0.26902  1.0000
  C   C27       1.0  0.03634  0.40090  0.26199  1.0000
  N   N20       1.0  0.05233  0.41041  0.17818  1.0000
  H   H19       1.0  0.08057  0.42428  0.16904  1.0000
  H   H20       1.0  0.03567  0.40249  0.12473  1.0000
  C   C28       1.0  0.62533  0.66878  0.34361  1.0000
  C   C29       1.0  0.66673  0.62789  0.34882  1.0000
  N   N21       1.0  0.65578  0.63709  0.26940  1.0000
  C   C30       1.0  0.63646  0.65767  0.26226  1.0000
  N   N22       1.0  0.62678  0.66393  0.17842  1.0000
  H   H21       1.0  0.61294  0.67833  0.16919  1.0000
  H   H22       1.0  0.63470  0.65515  0.12502  1.0000
  C   C31       1.0  0.36883  0.97899  0.34367  1.0000
  C   C32       1.0  0.40971  0.06135  0.34871  1.0000
  N   N23       1.0  0.40050  0.04113  0.26939  1.0000
  C   C33       1.0  0.37991  0.00123  0.26230  1.0000
  N   N24       1.0  0.37371  0.98529  0.17846  1.0000
  H   H23       1.0  0.35921  0.95705  0.16924  1.0000
  H   H24       1.0  0.38237  0.00198  0.12506  1.0000
  C   C34       1.0  0.97658  0.62789  0.34346  1.0000
  C   C35       1.0  0.05887  0.66921  0.34882  1.0000
  N   N25       1.0  0.03874  0.65833  0.26936  1.0000
  C   C36       1.0  0.99885  0.63906  0.26216  1.0000
  N   N26       1.0  0.98293  0.62939  0.17831  1.0000
  H   H25       1.0  0.95469  0.61549  0.16907  1.0000
  H   H26       1.0  0.99962  0.63725  0.12494  1.0000
  C   C37       1.0  0.40975  0.37120  0.34344  1.0000
  C   C38       1.0  0.36846  0.41221  0.34839  1.0000
  N   N27       1.0  0.37922  0.40278  0.26905  1.0000
  C   C39       1.0  0.39849  0.38214  0.26205  1.0000
  N   N28       1.0  0.40802  0.37568  0.17825  1.0000
  H   H27       1.0  0.42191  0.36131  0.16914  1.0000
  H   H28       1.0  0.40011  0.38441  0.12479  1.0000
  C   C40       1.0  0.66638  0.06106  0.34353  1.0000
  C   C41       1.0  0.62544  0.97874  0.34864  1.0000
  N   N29       1.0  0.63466  0.99887  0.26924  1.0000
  C   C42       1.0  0.65525  0.03878  0.26221  1.0000
  N   N30       1.0  0.66153  0.05473  0.17837  1.0000
  H   H29       1.0  0.67594  0.08297  0.16917  1.0000
  H   H30       1.0  0.65277  0.03805  0.12496  1.0000
  C   C43       1.0  0.14550  0.51326  0.35127  1.0000
  C   C44       1.0  0.10660  0.48163  0.34897  1.0000
  C   C45       1.0  0.09850  0.44238  0.34629  1.0000
  C   C46       1.0  0.13024  0.43501  0.34586  1.0000
  C   C47       1.0  0.16955  0.46644  0.34867  1.0000
  C   C48       1.0  0.17681  0.50547  0.35112  1.0000
  H   H31       1.0  0.12469  0.40667  0.34382  1.0000
  H   H32       1.0  0.20510  0.52845  0.35303  1.0000
  H   H33       1.0  0.08383  0.48730  0.34913  1.0000
  C   C49       1.0  0.52432  0.65477  0.35119  1.0000
  C   C50       1.0  0.55592  0.64745  0.34894  1.0000
  C   C51       1.0  0.59518  0.67857  0.34631  1.0000
  C   C52       1.0  0.60260  0.71770  0.34595  1.0000
  C   C53       1.0  0.57120  0.72561  0.34865  1.0000
  C   C54       1.0  0.53215  0.69387  0.35103  1.0000
  H   H34       1.0  0.63095  0.74046  0.34404  1.0000
  H   H35       1.0  0.50919  0.69921  0.35293  1.0000
  H   H36       1.0  0.55021  0.61899  0.34918  1.0000
  C   C55       1.0  0.38285  0.89201  0.35113  1.0000
  C   C56       1.0  0.39016  0.93092  0.34894  1.0000
  C   C57       1.0  0.35904  0.93906  0.34632  1.0000
  C   C58       1.0  0.31991  0.90736  0.34596  1.0000
  C   C59       1.0  0.31200  0.86803  0.34861  1.0000
  C   C60       1.0  0.34374  0.86073  0.35096  1.0000
  H   H37       1.0  0.29716  0.91294  0.34407  1.0000
  H   H38       1.0  0.33841  0.83243  0.35284  1.0000
  H   H39       1.0  0.41862  0.95367  0.34919  1.0000
  C   C61       1.0  0.88964  0.52684  0.35122  1.0000
  C   C62       1.0  0.92855  0.55846  0.34892  1.0000
  C   C63       1.0  0.93666  0.59771  0.34630  1.0000
  C   C64       1.0  0.90494  0.60510  0.34596  1.0000
  C   C65       1.0  0.86563  0.57368  0.34871  1.0000
  C   C66       1.0  0.85834  0.53464  0.35111  1.0000
  H   H40       1.0  0.91051  0.63344  0.34401  1.0000
  H   H41       1.0  0.83005  0.51167  0.35303  1.0000
  H   H42       1.0  0.95131  0.55277  0.34908  1.0000
  C   C67       1.0  0.51081  0.38535  0.35126  1.0000
  C   C68       1.0  0.47918  0.39261  0.34900  1.0000
  C   C69       1.0  0.43993  0.36146  0.34634  1.0000
  C   C70       1.0  0.43256  0.32235  0.34590  1.0000
  C   C71       1.0  0.46400  0.31448  0.34866  1.0000
  C   C72       1.0  0.50303  0.34625  0.35108  1.0000
  H   H43       1.0  0.40423  0.29957  0.34389  1.0000
  H   H44       1.0  0.52601  0.34095  0.35295  1.0000
  H   H45       1.0  0.48485  0.42106  0.34919  1.0000
  C   C73       1.0  0.65229  0.14801  0.35111  1.0000
  C   C74       1.0  0.64500  0.10910  0.34887  1.0000
  C   C75       1.0  0.67614  0.10098  0.34628  1.0000
  C   C76       1.0  0.71525  0.13270  0.34595  1.0000
  C   C77       1.0  0.72315  0.17201  0.34866  1.0000
  C   C78       1.0  0.69139  0.17930  0.35102  1.0000
  H   H46       1.0  0.73802  0.12713  0.34405  1.0000
  H   H47       1.0  0.69672  0.20759  0.35293  1.0000
  H   H48       1.0  0.61655  0.08634  0.34907  1.0000
  C   C79       1.0  0.51089  0.14813  0.34837  1.0000
  C   C80       1.0  0.47920  0.10923  0.34937  1.0000
  C   C81       1.0  0.43995  0.10117  0.34859  1.0000
  C   C82       1.0  0.43263  0.13294  0.34670  1.0000
  C   C83       1.0  0.46413  0.17224  0.34611  1.0000
  C   C84       1.0  0.50316  0.17947  0.34695  1.0000
  H   H49       1.0  0.40430  0.12743  0.34569  1.0000
  H   H50       1.0  0.52616  0.20775  0.34615  1.0000
  H   H51       1.0  0.48484  0.08644  0.35033  1.0000
  C   C85       1.0  0.65238  0.52673  0.34837  1.0000
  C   C86       1.0  0.64516  0.55841  0.34939  1.0000
  C   C87       1.0  0.67634  0.59766  0.34863  1.0000
  C   C88       1.0  0.71543  0.60500  0.34677  1.0000
  C   C89       1.0  0.72324  0.57351  0.34615  1.0000
  C   C90       1.0  0.69146  0.53448  0.34696  1.0000
  H   H52       1.0  0.73824  0.63333  0.34581  1.0000
  H   H53       1.0  0.69675  0.51148  0.34615  1.0000
  H   H54       1.0  0.61672  0.55275  0.35034  1.0000
  C   C91       1.0  0.88945  0.38527  0.34847  1.0000
  C   C92       1.0  0.92834  0.39249  0.34933  1.0000
  C   C93       1.0  0.93642  0.36131  0.34852  1.0000
  C   C94       1.0  0.90466  0.32222  0.34664  1.0000
  C   C95       1.0  0.86536  0.31441  0.34619  1.0000
  C   C96       1.0  0.85812  0.34620  0.34715  1.0000
  H   H55       1.0  0.91018  0.29941  0.34555  1.0000
  H   H56       1.0  0.82983  0.34091  0.34644  1.0000
  H   H57       1.0  0.95113  0.42093  0.35020  1.0000
  C   C97       1.0  0.52427  0.89192  0.34834  1.0000
  C   C98       1.0  0.55595  0.93082  0.34931  1.0000
  C   C99       1.0  0.59521  0.93890  0.34855  1.0000
  C   C100      1.0  0.60254  0.90714  0.34671  1.0000
  C   C101      1.0  0.57105  0.86783  0.34613  1.0000
  C   C102      1.0  0.53202  0.86059  0.34698  1.0000
  H   H58       1.0  0.63087  0.91265  0.34571  1.0000
  H   H59       1.0  0.50902  0.83231  0.34621  1.0000
  H   H60       1.0  0.55031  0.95361  0.35025  1.0000
  C   C103      1.0  0.38278  0.51336  0.34845  1.0000
  C   C104      1.0  0.39001  0.48170  0.34934  1.0000
  C   C105      1.0  0.35884  0.44243  0.34854  1.0000
  C   C106      1.0  0.31975  0.43509  0.34663  1.0000
  C   C107      1.0  0.31192  0.46658  0.34616  1.0000
  C   C108      1.0  0.34370  0.50561  0.34711  1.0000
  H   H61       1.0  0.29694  0.40676  0.34554  1.0000
  H   H62       1.0  0.33841  0.52860  0.34635  1.0000
  H   H63       1.0  0.41846  0.48735  0.35021  1.0000
  C   C109      1.0  0.14565  0.65481  0.34837  1.0000
  C   C110      1.0  0.10676  0.64760  0.34940  1.0000
  C   C111      1.0  0.09869  0.67879  0.34865  1.0000
  C   C112      1.0  0.13046  0.71788  0.34680  1.0000
  C   C113      1.0  0.16975  0.72568  0.34614  1.0000
  C   C114      1.0  0.17699  0.69388  0.34695  1.0000
  H   H64       1.0  0.12494  0.74069  0.34583  1.0000
  H   H65       1.0  0.20527  0.69917  0.34612  1.0000
  H   H66       1.0  0.08396  0.61917  0.35034  1.0000
  N   N31       1.0  0.25676  0.46215  0.42312  1.0000
  C   C115      1.0  0.22203  0.46158  0.42898  1.0000
  H   H67       1.0  0.21199  0.46422  0.49088  1.0000
  N   N32       1.0  0.57560  0.81717  0.42318  1.0000
  C   C116      1.0  0.57618  0.78301  0.42905  1.0000
  H   H68       1.0  0.57369  0.77040  0.49098  1.0000
  N   N33       1.0  0.22043  0.78091  0.42315  1.0000
  C   C117      1.0  0.25460  0.81564  0.42903  1.0000
  H   H69       1.0  0.26720  0.82576  0.49096  1.0000
  N   N34       1.0  0.77841  0.57799  0.42317  1.0000
  C   C118      1.0  0.81317  0.57861  0.42908  1.0000
  H   H70       1.0  0.82318  0.57594  0.49098  1.0000
  N   N35       1.0  0.45972  0.22298  0.42304  1.0000
  C   C119      1.0  0.45916  0.25715  0.42893  1.0000
  H   H71       1.0  0.46181  0.26982  0.49084  1.0000
  N   N36       1.0  0.81466  0.25922  0.42324  1.0000
  C   C120      1.0  0.78050  0.22448  0.42912  1.0000
  H   H72       1.0  0.76788  0.21439  0.49103  1.0000
  C   C121      1.0  0.15214  0.55196  0.35442  1.0000
  C   C122      1.0  0.15230  0.62279  0.34891  1.0000
  N   N37       1.0  0.15077  0.60492  0.42867  1.0000
  C   C123      1.0  0.15118  0.57062  0.43586  1.0000
  N   N38       1.0  0.14919  0.55579  0.51966  1.0000
  H   H73       1.0  0.14954  0.53151  0.52887  1.0000
  H   H74       1.0  0.14844  0.56986  0.57305  1.0000
  C   C124      1.0  0.48559  0.62274  0.35446  1.0000
  C   C125      1.0  0.41479  0.55204  0.34899  1.0000
  N   N39       1.0  0.43265  0.56843  0.42874  1.0000
  C   C126      1.0  0.46694  0.60315  0.43591  1.0000
  N   N40       1.0  0.48176  0.61602  0.51969  1.0000
  H   H75       1.0  0.50611  0.64059  0.52887  1.0000
  H   H76       1.0  0.46776  0.60115  0.57310  1.0000
  C   C127      1.0  0.41488  0.88531  0.35442  1.0000
  C   C128      1.0  0.48560  0.88528  0.34899  1.0000
  N   N41       1.0  0.46921  0.88672  0.42874  1.0000
  C   C129      1.0  0.43448  0.88628  0.43588  1.0000
  N   N42       1.0  0.42158  0.88820  0.51965  1.0000
  H   H77       1.0  0.39700  0.88796  0.52881  1.0000
  H   H78       1.0  0.43645  0.88908  0.57307  1.0000
  C   C130      1.0  0.88300  0.48813  0.35440  1.0000
  C   C131      1.0  0.88279  0.41729  0.34906  1.0000
  N   N43       1.0  0.88425  0.43515  0.42878  1.0000
  C   C132      1.0  0.88387  0.46947  0.43591  1.0000
  N   N44       1.0  0.88577  0.48428  0.51968  1.0000
  H   H79       1.0  0.88552  0.50862  0.52883  1.0000
  H   H80       1.0  0.88654  0.47024  0.57311  1.0000
  C   C133      1.0  0.54951  0.41742  0.35438  1.0000
  C   C134      1.0  0.62037  0.48806  0.34893  1.0000
  N   N45       1.0  0.60248  0.47170  0.42867  1.0000
  C   C135      1.0  0.56817  0.43700  0.43585  1.0000
  N   N46       1.0  0.55334  0.42415  0.51964  1.0000
  H   H81       1.0  0.52905  0.39953  0.52884  1.0000
  H   H82       1.0  0.56742  0.43896  0.57305  1.0000
  C   C136      1.0  0.62024  0.15467  0.35438  1.0000
  C   C137      1.0  0.54956  0.15476  0.34898  1.0000
  N   N47       1.0  0.56594  0.15330  0.42872  1.0000
  C   C138      1.0  0.60067  0.15374  0.43586  1.0000
  N   N48       1.0  0.61356  0.15180  0.51963  1.0000
  H   H83       1.0  0.63813  0.15202  0.52878  1.0000
  H   H84       1.0  0.59870  0.15093  0.57305  1.0000
  N   N49       1.0  0.03839  0.40337  0.42272  1.0000
  C   C139      1.0  0.99863  0.38244  0.42869  1.0000
  H   H85       1.0  0.98563  0.37882  0.49054  1.0000
  N   N50       1.0  0.63442  0.65773  0.42311  1.0000
  C   C140      1.0  0.65537  0.63893  0.42905  1.0000
  H   H86       1.0  0.65930  0.62983  0.49096  1.0000
  N   N51       1.0  0.37990  0.99919  0.42309  1.0000
  C   C141      1.0  0.39868  0.03895  0.42896  1.0000
  H   H87       1.0  0.40778  0.05199  0.49086  1.0000
  N   N52       1.0  0.99671  0.63687  0.42298  1.0000
  C   C142      1.0  0.03646  0.65788  0.42905  1.0000
  H   H88       1.0  0.04946  0.66154  0.49091  1.0000
  N   N53       1.0  0.40086  0.38250  0.42286  1.0000
  C   C143      1.0  0.37992  0.40132  0.42874  1.0000
  H   H89       1.0  0.37624  0.41067  0.49059  1.0000
  N   N54       1.0  0.65526  0.04084  0.42296  1.0000
  C   C144      1.0  0.63645  0.00109  0.42893  1.0000
  H   H90       1.0  0.62732  0.98805  0.49083  1.0000
