data_image0
_chemical_formula_structural       C3NC3NC5NC5NC36H26N4C3NC3NC5NC5NC36H26N4C3NC3NC5NC5NC36H26N4C3H2CHC3H2CHC3H2CHC3H2CHC3H2CHC3H2CHC16H16C16H16C16H16C3HCH3CHC3HCH3CHC3HCH3CHC3HCH3CHC3HCH3CHC3HCH3CH
_chemical_formula_sum              "C258 N24 H174"
_cell_length_a       67.6545
_cell_length_b       67.6544
_cell_length_c       14.8969
_cell_angle_alpha    89.8354
_cell_angle_beta     90.1646
_cell_angle_gamma    120

_space_group_name_H-M_alt    "P 1"
_space_group_IT_number       1

loop_
  _space_group_symop_operation_xyz
  'x, y, z'

loop_
  _atom_site_type_symbol
  _atom_site_label
  _atom_site_symmetry_multiplicity
  _atom_site_fract_x
  _atom_site_fract_y
  _atom_site_fract_z
  _atom_site_occupancy
  C   C1        1.0  0.04709  0.50660  0.31660  1.0000
  C   C2        1.0  0.02351  0.49469  0.31784  1.0000
  C   C3        1.0  0.01588  0.51044  0.31798  1.0000
  N   N1        1.0  0.03509  0.53124  0.31710  1.0000
  C   C4        1.0  0.05446  0.52992  0.31643  1.0000
  C   C5        1.0  0.07768  0.54774  0.31578  1.0000
  C   C6        1.0  0.08496  0.57143  0.31654  1.0000
  N   N2        1.0  0.07195  0.58144  0.31717  1.0000
  C   C7        1.0  0.08473  0.60448  0.31827  1.0000
  C   C8        1.0  0.10745  0.60956  0.31829  1.0000
  C   C9        1.0  0.10759  0.58925  0.31723  1.0000
  C   C10       1.0  0.07717  0.62066  0.31907  1.0000
  C   C11       1.0  0.05386  0.61497  0.31808  1.0000
  N   N3        1.0  0.03466  0.59417  0.31711  1.0000
  C   C12       1.0  0.01529  0.59549  0.31642  1.0000
  C   C13       1.0  0.02265  0.61881  0.31667  1.0000
  C   C14       1.0  0.04624  0.63073  0.31799  1.0000
  C   C15       1.0  0.99207  0.57768  0.31568  1.0000
  C   C16       1.0  0.98478  0.55399  0.31640  1.0000
  N   N4        1.0  0.99780  0.54398  0.31695  1.0000
  C   C17       1.0  0.98501  0.52094  0.31813  1.0000
  C   C18       1.0  0.96230  0.51586  0.31831  1.0000
  C   C19       1.0  0.96216  0.53617  0.31725  1.0000
  C   C20       1.0  0.99258  0.50475  0.31892  1.0000
  C   C21       1.0  0.97536  0.48119  0.32149  1.0000
  C   C22       1.0  0.93703  0.43574  0.32642  1.0000
  C   C23       1.0  0.94710  0.44654  0.24392  1.0000
  C   C24       1.0  0.96587  0.46894  0.24133  1.0000
  C   C25       1.0  0.91700  0.41350  0.32871  1.0000
  C   C26       1.0  0.91456  0.39572  0.27142  1.0000
  C   C27       1.0  0.89474  0.37400  0.27309  1.0000
  C   C28       1.0  0.87649  0.36929  0.33181  1.0000
  C   C29       1.0  0.97467  0.58378  0.31443  1.0000
  C   C30       1.0  0.93664  0.59139  0.31304  1.0000
  C   C31       1.0  0.94564  0.58810  0.23223  1.0000
  C   C32       1.0  0.96431  0.58433  0.23277  1.0000
  C   C33       1.0  0.91697  0.59423  0.31271  1.0000
  C   C34       1.0  0.87721  0.59923  0.31429  1.0000
  C   C35       1.0  0.87852  0.58337  0.25697  1.0000
  C   C36       1.0  0.89798  0.58086  0.25638  1.0000
  C   C37       1.0  0.09437  0.64423  0.32169  1.0000
  C   C38       1.0  0.10349  0.65669  0.24157  1.0000
  C   C39       1.0  0.12210  0.67917  0.24413  1.0000
  C   C40       1.0  0.13238  0.68986  0.32654  1.0000
  C   C41       1.0  0.15219  0.71225  0.32873  1.0000
  C   C42       1.0  0.19222  0.75681  0.33193  1.0000
  C   C43       1.0  0.17370  0.75193  0.27410  1.0000
  C   C44       1.0  0.15412  0.73004  0.27237  1.0000
  C   C45       1.0  0.09509  0.54167  0.31453  1.0000
  C   C46       1.0  0.10530  0.54108  0.23279  1.0000
  C   C47       1.0  0.13342  0.53452  0.31307  1.0000
  C   C48       1.0  0.12412  0.53753  0.23223  1.0000
  C   C49       1.0  0.15329  0.53202  0.31272  1.0000
  C   C50       1.0  0.17209  0.54551  0.25581  1.0000
  C   C51       1.0  0.19176  0.54336  0.25646  1.0000
  C   C52       1.0  0.19350  0.52778  0.31441  1.0000
  H   H1        1.0  0.20503  0.55357  0.21477  1.0000
  H   H2        1.0  0.17188  0.55749  0.21437  1.0000
  H   H3        1.0  0.13105  0.53726  0.17159  1.0000
  H   H4        1.0  0.09943  0.54376  0.17319  1.0000
  H   H5        1.0  0.05706  0.49918  0.31631  1.0000
  H   H6        1.0  0.01371  0.47728  0.31831  1.0000
  H   H7        1.0  0.03499  0.54539  0.31719  1.0000
  H   H8        1.0  0.03475  0.58003  0.31713  1.0000
  H   H9        1.0  0.12203  0.58800  0.31727  1.0000
  H   H10       1.0  0.12177  0.62535  0.31886  1.0000
  H   H11       1.0  0.09706  0.64922  0.18065  1.0000
  H   H12       1.0  0.12875  0.68731  0.18447  1.0000
  H   H13       1.0  0.05603  0.64813  0.31854  1.0000
  H   H14       1.0  0.01269  0.62624  0.31634  1.0000
  H   H15       1.0  0.94797  0.50007  0.31907  1.0000
  H   H16       1.0  0.94772  0.53743  0.31748  1.0000
  H   H17       1.0  0.97000  0.58151  0.17320  1.0000
  H   H18       1.0  0.93861  0.58838  0.17164  1.0000
  H   H19       1.0  0.89787  0.56869  0.21542  1.0000
  H   H20       1.0  0.86510  0.57325  0.21569  1.0000
  H   H21       1.0  0.97210  0.47653  0.18039  1.0000
  H   H22       1.0  0.94016  0.43859  0.18427  1.0000
  H   H23       1.0  0.89388  0.36164  0.23134  1.0000
  H   H24       1.0  0.92747  0.39830  0.22873  1.0000
  H   H25       1.0  0.14099  0.72735  0.23046  1.0000
  H   H26       1.0  0.17419  0.76430  0.23311  1.0000
  N   N5        1.0  0.85728  0.34916  0.33880  1.0000
  N   N6        1.0  0.21272  0.52675  0.31096  1.0000
  N   N7        1.0  0.21123  0.77711  0.33892  1.0000
  N   N8        1.0  0.85820  0.60065  0.31076  1.0000
  C   C53       1.0  0.59258  0.63424  0.31884  1.0000
  C   C54       1.0  0.60450  0.62257  0.32001  1.0000
  C   C55       1.0  0.58875  0.59919  0.32011  1.0000
  N   N9        1.0  0.56794  0.59760  0.31929  1.0000
  C   C56       1.0  0.56926  0.61828  0.31865  1.0000
  C   C57       1.0  0.55144  0.62369  0.31797  1.0000
  C   C58       1.0  0.52775  0.60728  0.31868  1.0000
  N   N10       1.0  0.51775  0.58426  0.31931  1.0000
  C   C59       1.0  0.49471  0.57400  0.32035  1.0000
  C   C60       1.0  0.48962  0.59163  0.32032  1.0000
  C   C61       1.0  0.50993  0.61209  0.31931  1.0000
  C   C62       1.0  0.47852  0.55025  0.32113  1.0000
  C   C63       1.0  0.48421  0.53264  0.32017  1.0000
  N   N11       1.0  0.50501  0.53424  0.31923  1.0000
  C   C64       1.0  0.50369  0.51355  0.31858  1.0000
  C   C65       1.0  0.48037  0.49759  0.31881  1.0000
  C   C66       1.0  0.46845  0.50926  0.32011  1.0000
  C   C67       1.0  0.52150  0.50814  0.31786  1.0000
  C   C68       1.0  0.54519  0.52454  0.31856  1.0000
  N   N12       1.0  0.55520  0.54757  0.31911  1.0000
  C   C69       1.0  0.57824  0.55782  0.32019  1.0000
  C   C70       1.0  0.58332  0.54018  0.32034  1.0000
  C   C71       1.0  0.56301  0.51973  0.31935  1.0000
  C   C72       1.0  0.59443  0.58157  0.32095  1.0000
  C   C73       1.0  0.61799  0.58791  0.32338  1.0000
  C   C74       1.0  0.66344  0.59503  0.32796  1.0000
  C   C75       1.0  0.65260  0.59440  0.24555  1.0000
  C   C76       1.0  0.63021  0.59080  0.24312  1.0000
  C   C77       1.0  0.68569  0.59726  0.33005  1.0000
  C   C78       1.0  0.70344  0.61267  0.27265  1.0000
  C   C79       1.0  0.72516  0.61457  0.27410  1.0000
  C   C80       1.0  0.72990  0.60096  0.33272  1.0000
  C   C81       1.0  0.51540  0.48464  0.31663  1.0000
  C   C82       1.0  0.50779  0.43900  0.31526  1.0000
  C   C83       1.0  0.51107  0.45139  0.23444  1.0000
  C   C84       1.0  0.51483  0.47382  0.23497  1.0000
  C   C85       1.0  0.50495  0.41649  0.31494  1.0000
  C   C86       1.0  0.49995  0.37173  0.31651  1.0000
  C   C87       1.0  0.51580  0.38897  0.25915  1.0000
  C   C88       1.0  0.51832  0.41095  0.25861  1.0000
  C   C89       1.0  0.45495  0.54389  0.32360  1.0000
  C   C90       1.0  0.44251  0.54061  0.24341  1.0000
  C   C91       1.0  0.42004  0.53677  0.24580  1.0000
  C   C92       1.0  0.40932  0.53626  0.32812  1.0000
  C   C93       1.0  0.38692  0.53366  0.33013  1.0000
  C   C94       1.0  0.34237  0.52915  0.33281  1.0000
  C   C95       1.0  0.34726  0.51555  0.27520  1.0000
  C   C96       1.0  0.36915  0.51785  0.27375  1.0000
  C   C97       1.0  0.55752  0.64718  0.31673  1.0000
  C   C98       1.0  0.55812  0.65809  0.23499  1.0000
  C   C99       1.0  0.56466  0.69266  0.31529  1.0000
  C   C100      1.0  0.56167  0.68045  0.23444  1.0000
  C   C101      1.0  0.56716  0.71503  0.31494  1.0000
  C   C102      1.0  0.55368  0.72041  0.25801  1.0000
  C   C103      1.0  0.55582  0.74222  0.25864  1.0000
  C   C104      1.0  0.57139  0.75947  0.31664  1.0000
  H   H27       1.0  0.54562  0.74534  0.21693  1.0000
  H   H28       1.0  0.54170  0.70827  0.21655  1.0000
  H   H29       1.0  0.56194  0.68773  0.17381  1.0000
  H   H30       1.0  0.55544  0.64961  0.17539  1.0000
  H   H31       1.0  0.60001  0.65163  0.31848  1.0000
  H   H32       1.0  0.62190  0.63018  0.32038  1.0000
  H   H33       1.0  0.55380  0.58336  0.31931  1.0000
  H   H34       1.0  0.51915  0.54847  0.31924  1.0000
  H   H35       1.0  0.51119  0.62779  0.31932  1.0000
  H   H36       1.0  0.47383  0.59017  0.32083  1.0000
  H   H37       1.0  0.45001  0.54173  0.18255  1.0000
  H   H38       1.0  0.41191  0.53531  0.18608  1.0000
  H   H39       1.0  0.45105  0.50165  0.32064  1.0000
  H   H40       1.0  0.47294  0.48020  0.31854  1.0000
  H   H41       1.0  0.59911  0.54165  0.32102  1.0000
  H   H42       1.0  0.56175  0.50403  0.31951  1.0000
  H   H43       1.0  0.51765  0.48241  0.17539  1.0000
  H   H44       1.0  0.51079  0.44416  0.17385  1.0000
  H   H45       1.0  0.53048  0.42306  0.21760  1.0000
  H   H46       1.0  0.52592  0.38573  0.21786  1.0000
  H   H47       1.0  0.62260  0.58952  0.18224  1.0000
  H   H48       1.0  0.66055  0.59553  0.18583  1.0000
  H   H49       1.0  0.73750  0.62613  0.23228  1.0000
  H   H50       1.0  0.70084  0.62306  0.23009  1.0000
  H   H51       1.0  0.37186  0.50746  0.23192  1.0000
  H   H52       1.0  0.33491  0.50371  0.23418  1.0000
  N   N13       1.0  0.75003  0.60185  0.33941  1.0000
  N   N14       1.0  0.57243  0.77973  0.31317  1.0000
  N   N15       1.0  0.32206  0.52785  0.33957  1.0000
  N   N16       1.0  0.49853  0.35130  0.31295  1.0000
  C   C105      1.0  0.46494  0.05207  0.32023  1.0000
  C   C106      1.0  0.47660  0.07566  0.32153  1.0000
  C   C107      1.0  0.49998  0.08329  0.32176  1.0000
  N   N17       1.0  0.50158  0.06408  0.32091  1.0000
  C   C108      1.0  0.48090  0.04472  0.32010  1.0000
  C   C109      1.0  0.47550  0.02149  0.31936  1.0000
  C   C110      1.0  0.49191  0.01421  0.32021  1.0000
  N   N18       1.0  0.51493  0.02723  0.32094  1.0000
  C   C111      1.0  0.52519  0.01445  0.32209  1.0000
  C   C112      1.0  0.50756  0.99173  0.32207  1.0000
  C   C113      1.0  0.48711  0.99159  0.32089  1.0000
  C   C114      1.0  0.54894  0.02201  0.32290  1.0000
  C   C115      1.0  0.56655  0.04532  0.32183  1.0000
  N   N19       1.0  0.56495  0.06453  0.32086  1.0000
  C   C116      1.0  0.58563  0.08389  0.32004  1.0000
  C   C117      1.0  0.60160  0.07653  0.32020  1.0000
  C   C118      1.0  0.58993  0.05295  0.32162  1.0000
  C   C119      1.0  0.59104  0.10711  0.31927  1.0000
  C   C120      1.0  0.57463  0.11440  0.32011  1.0000
  N   N20       1.0  0.55161  0.10138  0.32073  1.0000
  C   C121      1.0  0.54135  0.11416  0.32193  1.0000
  C   C122      1.0  0.55898  0.13688  0.32206  1.0000
  C   C123      1.0  0.57944  0.13702  0.32093  1.0000
  C   C124      1.0  0.51760  0.10660  0.32272  1.0000
  C   C125      1.0  0.51125  0.12381  0.32519  1.0000
  C   C126      1.0  0.50413  0.16213  0.32993  1.0000
  C   C127      1.0  0.50476  0.15204  0.24747  1.0000
  C   C128      1.0  0.50836  0.13326  0.24498  1.0000
  C   C129      1.0  0.50192  0.18216  0.33208  1.0000
  C   C130      1.0  0.48650  0.18457  0.27473  1.0000
  C   C131      1.0  0.48460  0.20439  0.27623  1.0000
  C   C132      1.0  0.49824  0.22268  0.33479  1.0000
  C   C133      1.0  0.61453  0.12452  0.31774  1.0000
  C   C134      1.0  0.66017  0.16254  0.31568  1.0000
  C   C135      1.0  0.64772  0.15349  0.23505  1.0000
  C   C136      1.0  0.62527  0.13482  0.23591  1.0000
  C   C137      1.0  0.68268  0.18220  0.31501  1.0000
  C   C138      1.0  0.72745  0.22196  0.31586  1.0000
  C   C139      1.0  0.71015  0.22061  0.25877  1.0000
  C   C140      1.0  0.68818  0.20116  0.25855  1.0000
  C   C141      1.0  0.55531  0.00482  0.32547  1.0000
  C   C142      1.0  0.55859  0.99575  0.24531  1.0000
  C   C143      1.0  0.56244  0.97712  0.24774  1.0000
  C   C144      1.0  0.56294  0.96681  0.33009  1.0000
  C   C145      1.0  0.56553  0.94700  0.33214  1.0000
  C   C146      1.0  0.57006  0.90696  0.33492  1.0000
  C   C147      1.0  0.58365  0.92552  0.27728  1.0000
  C   C148      1.0  0.58135  0.94511  0.27576  1.0000
  C   C149      1.0  0.45200  0.00408  0.31784  1.0000
  C   C150      1.0  0.44117  0.99392  0.23594  1.0000
  C   C151      1.0  0.40654  0.96574  0.31573  1.0000
  C   C152      1.0  0.41882  0.97509  0.23506  1.0000
  C   C153      1.0  0.38417  0.94587  0.31503  1.0000
  C   C154      1.0  0.37884  0.92711  0.25799  1.0000
  C   C155      1.0  0.35703  0.90744  0.25831  1.0000
  C   C156      1.0  0.33971  0.90566  0.31599  1.0000
  H   H53       1.0  0.35395  0.89420  0.21651  1.0000
  H   H54       1.0  0.39102  0.92734  0.21674  1.0000
  H   H55       1.0  0.41160  0.96819  0.17432  1.0000
  H   H56       1.0  0.44972  0.99982  0.17646  1.0000
  H   H57       1.0  0.44755  0.04211  0.31980  1.0000
  H   H58       1.0  0.46900  0.08545  0.32195  1.0000
  H   H59       1.0  0.51582  0.06418  0.32102  1.0000
  H   H60       1.0  0.55071  0.06443  0.32098  1.0000
  H   H61       1.0  0.47141  0.97714  0.32089  1.0000
  H   H62       1.0  0.50903  0.97741  0.32262  1.0000
  H   H63       1.0  0.55746  0.00218  0.18442  1.0000
  H   H64       1.0  0.56388  0.97051  0.18804  1.0000
  H   H65       1.0  0.59754  0.04316  0.32217  1.0000
  H   H66       1.0  0.61898  0.08650  0.31984  1.0000
  H   H67       1.0  0.55752  0.15120  0.32279  1.0000
  H   H68       1.0  0.59514  0.15146  0.32107  1.0000
  H   H69       1.0  0.61664  0.12909  0.17645  1.0000
  H   H70       1.0  0.65489  0.16048  0.17435  1.0000
  H   H71       1.0  0.67602  0.20124  0.21776  1.0000
  H   H72       1.0  0.71335  0.23401  0.21741  1.0000
  H   H73       1.0  0.50964  0.12701  0.18408  1.0000
  H   H74       1.0  0.50362  0.15893  0.18779  1.0000
  H   H75       1.0  0.47304  0.20524  0.23443  1.0000
  H   H76       1.0  0.47610  0.17164  0.23218  1.0000
  H   H77       1.0  0.59173  0.95825  0.23395  1.0000
  H   H78       1.0  0.59549  0.92506  0.23627  1.0000
  N   N21       1.0  0.49735  0.24191  0.34153  1.0000
  N   N22       1.0  0.31946  0.88646  0.31219  1.0000
  N   N23       1.0  0.57135  0.88794  0.34170  1.0000
  N   N24       1.0  0.74787  0.24097  0.31198  1.0000
  C   C157      1.0  0.28411  0.51886  0.31719  1.0000
  C   C158      1.0  0.27300  0.52371  0.24701  1.0000
  C   C159      1.0  0.25262  0.52399  0.26205  1.0000
  H   H79       1.0  0.27955  0.52686  0.18323  1.0000
  H   H80       1.0  0.24506  0.52724  0.20880  1.0000
  C   C160      1.0  0.30326  0.51723  0.29518  1.0000
  H   H81       1.0  0.30229  0.50790  0.24219  1.0000
  C   C161      1.0  0.58035  0.85902  0.31931  1.0000
  C   C162      1.0  0.57548  0.84313  0.24918  1.0000
  C   C163      1.0  0.57519  0.82245  0.26425  1.0000
  H   H82       1.0  0.57232  0.84660  0.18539  1.0000
  H   H83       1.0  0.57191  0.81169  0.21104  1.0000
  C   C164      1.0  0.58196  0.87980  0.29729  1.0000
  H   H84       1.0  0.59129  0.88824  0.24430  1.0000
  C   C165      1.0  0.24016  0.81509  0.31697  1.0000
  C   C166      1.0  0.25612  0.82622  0.24710  1.0000
  C   C167      1.0  0.27679  0.84660  0.26250  1.0000
  H   H85       1.0  0.25272  0.81970  0.18327  1.0000
  H   H86       1.0  0.28760  0.85416  0.20947  1.0000
  C   C168      1.0  0.21940  0.79594  0.29463  1.0000
  H   H87       1.0  0.21100  0.79693  0.24159  1.0000
  C   C169      1.0  0.78773  0.61011  0.31682  1.0000
  C   C170      1.0  0.79856  0.60503  0.24666  1.0000
  C   C171      1.0  0.81874  0.60432  0.26171  1.0000
  H   H88       1.0  0.79197  0.60203  0.18288  1.0000
  H   H89       1.0  0.82611  0.60092  0.20849  1.0000
  C   C172      1.0  0.76879  0.61214  0.29477  1.0000
  H   H90       1.0  0.76986  0.62153  0.24160  1.0000
  C   C173      1.0  0.48908  0.27138  0.31898  1.0000
  C   C174      1.0  0.49416  0.28738  0.24885  1.0000
  C   C175      1.0  0.49487  0.30825  0.26392  1.0000
  H   H91       1.0  0.49718  0.28388  0.18506  1.0000
  H   H92       1.0  0.49828  0.31909  0.21071  1.0000
  C   C176      1.0  0.48706  0.25044  0.29691  1.0000
  H   H93       1.0  0.47766  0.24219  0.24375  1.0000
  C   C177      1.0  0.82780  0.31144  0.31667  1.0000
  C   C178      1.0  0.81172  0.30058  0.24680  1.0000
  C   C179      1.0  0.79087  0.28040  0.26221  1.0000
  H   H94       1.0  0.81516  0.30715  0.18298  1.0000
  H   H95       1.0  0.77997  0.27302  0.20918  1.0000
  C   C180      1.0  0.84872  0.33038  0.29428  1.0000
  H   H96       1.0  0.85691  0.32929  0.24094  1.0000
  C   C181      1.0  0.96580  0.47044  0.40417  1.0000
  C   C182      1.0  0.94698  0.44809  0.40644  1.0000
  C   C183      1.0  0.87886  0.38689  0.38926  1.0000
  C   C184      1.0  0.89868  0.40857  0.38766  1.0000
  C   C185      1.0  0.96606  0.58731  0.39534  1.0000
  C   C186      1.0  0.94742  0.59114  0.39447  1.0000
  C   C187      1.0  0.91565  0.61032  0.36935  1.0000
  C   C188      1.0  0.89620  0.61285  0.37000  1.0000
  C   C189      1.0  0.12281  0.67728  0.40653  1.0000
  C   C190      1.0  0.10415  0.65485  0.40431  1.0000
  C   C191      1.0  0.17078  0.71734  0.38674  1.0000
  C   C192      1.0  0.19037  0.73919  0.38840  1.0000
  C   C193      1.0  0.10399  0.53837  0.39547  1.0000
  C   C194      1.0  0.12277  0.53476  0.39458  1.0000
  C   C195      1.0  0.17471  0.51405  0.37072  1.0000
  C   C196      1.0  0.15504  0.51621  0.37003  1.0000
  H   H97       1.0  0.17505  0.50219  0.41232  1.0000
  H   H98       1.0  0.14176  0.50573  0.41105  1.0000
  H   H99       1.0  0.12920  0.53327  0.45485  1.0000
  H   H100      1.0  0.09727  0.53927  0.45582  1.0000
  H   H101      1.0  0.09811  0.64609  0.46336  1.0000
  H   H102      1.0  0.12947  0.68433  0.46775  1.0000
  H   H103      1.0  0.97290  0.58646  0.45566  1.0000
  H   H104      1.0  0.94120  0.59284  0.45473  1.0000
  H   H105      1.0  0.89618  0.62491  0.41108  1.0000
  H   H106      1.0  0.92910  0.62073  0.40993  1.0000
  H   H107      1.0  0.89937  0.42093  0.42911  1.0000
  H   H108      1.0  0.86601  0.38407  0.43275  1.0000
  H   H109      1.0  0.94048  0.44095  0.46772  1.0000
  H   H110      1.0  0.97208  0.47906  0.46327  1.0000
  H   H111      1.0  0.17045  0.70498  0.42752  1.0000
  H   H112      1.0  0.20343  0.74212  0.43123  1.0000
  C   C197      1.0  0.62877  0.58899  0.40598  1.0000
  C   C198      1.0  0.65113  0.59253  0.40807  1.0000
  C   C199      1.0  0.71233  0.58565  0.39024  1.0000
  C   C200      1.0  0.69065  0.58378  0.38883  1.0000
  C   C201      1.0  0.51189  0.47241  0.39755  1.0000
  C   C202      1.0  0.50805  0.44994  0.39669  1.0000
  C   C203      1.0  0.48886  0.39901  0.37159  1.0000
  C   C204      1.0  0.48633  0.37703  0.37225  1.0000
  C   C205      1.0  0.42187  0.53919  0.40819  1.0000
  C   C206      1.0  0.44431  0.54297  0.40613  1.0000
  C   C207      1.0  0.38181  0.54710  0.38796  1.0000
  C   C208      1.0  0.35995  0.54484  0.38937  1.0000
  C   C209      1.0  0.56080  0.65926  0.39768  1.0000
  C   C210      1.0  0.56442  0.68165  0.39679  1.0000
  C   C211      1.0  0.58512  0.75434  0.37297  1.0000
  C   C212      1.0  0.58296  0.73252  0.37229  1.0000
  H   H113      1.0  0.59697  0.76649  0.41460  1.0000
  H   H114      1.0  0.59343  0.72965  0.41333  1.0000
  H   H115      1.0  0.56589  0.68950  0.45706  1.0000
  H   H116      1.0  0.55989  0.65156  0.45804  1.0000
  H   H117      1.0  0.45305  0.54563  0.46524  1.0000
  H   H118      1.0  0.41480  0.53873  0.46935  1.0000
  H   H119      1.0  0.51272  0.48002  0.45785  1.0000
  H   H120      1.0  0.50635  0.44194  0.45695  1.0000
  H   H121      1.0  0.47428  0.36489  0.41333  1.0000
  H   H122      1.0  0.47846  0.40200  0.41218  1.0000
  H   H123      1.0  0.67831  0.57206  0.43037  1.0000
  H   H124      1.0  0.71517  0.57554  0.43361  1.0000
  H   H125      1.0  0.65829  0.59308  0.46928  1.0000
  H   H126      1.0  0.62017  0.58657  0.46513  1.0000
  H   H127      1.0  0.39415  0.55910  0.42873  1.0000
  H   H128      1.0  0.35701  0.55493  0.43204  1.0000
  C   C213      1.0  0.51018  0.13340  0.40783  1.0000
  C   C214      1.0  0.50665  0.15221  0.40999  1.0000
  C   C215      1.0  0.51354  0.22034  0.39230  1.0000
  C   C216      1.0  0.51539  0.20051  0.39087  1.0000
  C   C217      1.0  0.62684  0.13317  0.39847  1.0000
  C   C218      1.0  0.64932  0.15180  0.39728  1.0000
  C   C219      1.0  0.70022  0.18356  0.37142  1.0000
  C   C220      1.0  0.72220  0.20300  0.37170  1.0000
  C   C221      1.0  0.56000  0.97633  0.41013  1.0000
  C   C222      1.0  0.55622  0.99499  0.40802  1.0000
  C   C223      1.0  0.55210  0.92838  0.39000  1.0000
  C   C224      1.0  0.55436  0.90879  0.39146  1.0000
  C   C225      1.0  0.43986  0.99513  0.39861  1.0000
  C   C226      1.0  0.41746  0.97636  0.39740  1.0000
  C   C227      1.0  0.34479  0.92442  0.37242  1.0000
  C   C228      1.0  0.36662  0.94409  0.37208  1.0000
  H   H129      1.0  0.33260  0.92406  0.41385  1.0000
  H   H130      1.0  0.36945  0.95735  0.41320  1.0000
  H   H131      1.0  0.40956  0.96987  0.45755  1.0000
  H   H132      1.0  0.44749  0.00181  0.45907  1.0000
  H   H133      1.0  0.55356  0.00100  0.46710  1.0000
  H   H134      1.0  0.56046  0.96965  0.47131  1.0000
  H   H135      1.0  0.61929  0.12636  0.45890  1.0000
  H   H136      1.0  0.65736  0.15806  0.45742  1.0000
  H   H137      1.0  0.73437  0.20305  0.41261  1.0000
  H   H138      1.0  0.69726  0.17013  0.41207  1.0000
  H   H139      1.0  0.52713  0.19984  0.43237  1.0000
  H   H140      1.0  0.52366  0.23322  0.43566  1.0000
  H   H141      1.0  0.50612  0.15875  0.47123  1.0000
  H   H142      1.0  0.51263  0.12715  0.46696  1.0000
  H   H143      1.0  0.54010  0.92868  0.43076  1.0000
  H   H144      1.0  0.54427  0.89570  0.43414  1.0000
  C   C229      1.0  0.24239  0.51924  0.34792  1.0000
  C   C230      1.0  0.25355  0.51442  0.41803  1.0000
  C   C231      1.0  0.27412  0.51406  0.40445  1.0000
  H   H145      1.0  0.24634  0.51078  0.48066  1.0000
  C   C232      1.0  0.28422  0.50799  0.48132  1.0000
  H   H146      1.0  0.27377  0.50350  0.54185  1.0000
  H   H147      1.0  0.30094  0.52244  0.49784  1.0000
  H   H148      1.0  0.28610  0.49338  0.46368  1.0000
  C   C233      1.0  0.22164  0.51838  0.36461  1.0000
  H   H149      1.0  0.21358  0.51133  0.42168  1.0000
  C   C234      1.0  0.57993  0.81686  0.35013  1.0000
  C   C235      1.0  0.58476  0.83276  0.42022  1.0000
  C   C236      1.0  0.58513  0.85370  0.40660  1.0000
  H   H150      1.0  0.58838  0.82910  0.48287  1.0000
  C   C237      1.0  0.59120  0.86978  0.48346  1.0000
  H   H151      1.0  0.59569  0.86375  0.54400  1.0000
  H   H152      1.0  0.57676  0.87205  0.49996  1.0000
  H   H153      1.0  0.60582  0.88630  0.46582  1.0000
  C   C238      1.0  0.58077  0.79694  0.36686  1.0000
  H   H154      1.0  0.58780  0.79585  0.42397  1.0000
  C   C239      1.0  0.28228  0.85677  0.34847  1.0000
  C   C240      1.0  0.26631  0.84558  0.41830  1.0000
  C   C241      1.0  0.24538  0.82502  0.40435  1.0000
  H   H155      1.0  0.26989  0.85275  0.48100  1.0000
  C   C242      1.0  0.22921  0.81488  0.48093  1.0000
  H   H156      1.0  0.23518  0.82530  0.54156  1.0000
  H   H157      1.0  0.22693  0.79815  0.49742  1.0000
  H   H158      1.0  0.21271  0.81301  0.46299  1.0000
  C   C243      1.0  0.30218  0.87750  0.36553  1.0000
  H   H159      1.0  0.30320  0.88553  0.42263  1.0000
  C   C244      1.0  0.82903  0.60883  0.34759  1.0000
  C   C245      1.0  0.81815  0.61388  0.41768  1.0000
  C   C246      1.0  0.79779  0.61467  0.40410  1.0000
  H   H160      1.0  0.82540  0.61734  0.48033  1.0000
  C   C247      1.0  0.78798  0.62094  0.48097  1.0000
  H   H161      1.0  0.79847  0.62523  0.54148  1.0000
  H   H162      1.0  0.77116  0.60668  0.49753  1.0000
  H   H163      1.0  0.78639  0.63575  0.46332  1.0000
  C   C248      1.0  0.84960  0.60927  0.36428  1.0000
  H   H164      1.0  0.85779  0.61624  0.42126  1.0000
  C   C249      1.0  0.49034  0.31391  0.34978  1.0000
  C   C250      1.0  0.48530  0.29788  0.41987  1.0000
  C   C251      1.0  0.48451  0.27675  0.40626  1.0000
  H   H165      1.0  0.48184  0.30160  0.48252  1.0000
  C   C252      1.0  0.47825  0.26058  0.48311  1.0000
  H   H166      1.0  0.47396  0.26670  0.54364  1.0000
  H   H167      1.0  0.49252  0.25800  0.49967  1.0000
  H   H168      1.0  0.46344  0.24419  0.46545  1.0000
  C   C253      1.0  0.48992  0.33402  0.36651  1.0000
  H   H169      1.0  0.48297  0.33518  0.42353  1.0000
  C   C254      1.0  0.78532  0.27015  0.34815  1.0000
  C   C255      1.0  0.80141  0.28107  0.41796  1.0000
  C   C256      1.0  0.82253  0.30142  0.40402  1.0000
  H   H170      1.0  0.79777  0.27384  0.48066  1.0000
  C   C257      1.0  0.83879  0.31127  0.48060  1.0000
  H   H171      1.0  0.83274  0.30080  0.54120  1.0000
  H   H172      1.0  0.84138  0.32809  0.49717  1.0000
  H   H173      1.0  0.85516  0.31286  0.46263  1.0000
  C   C258      1.0  0.76522  0.24960  0.36520  1.0000
  H   H174      1.0  0.76413  0.24143  0.42218  1.0000
