data_image0
_chemical_formula_structural       CNH3C3HC2HC3NHC6N2H4C6N2H4C2HC2H2C2H2C2H2C2H2C2H2C2H2C2H2C2H2C2H2C2H2C2H2C3H3C3H2C3H2C3H2C3H2C8H2N2O4C8H2N2O4C8HN2O4C8H2N2O4C8H2N2O4C8H2N2O4H
_chemical_formula_sum              "C108 N18 H60 O24"
_cell_length_a       31.6351
_cell_length_b       31.6351
_cell_length_c       14.8736
_cell_angle_alpha    90
_cell_angle_beta     90
_cell_angle_gamma    120

_space_group_name_H-M_alt    "P 1"
_space_group_IT_number       1

loop_
  _space_group_symop_operation_xyz
  'x, y, z'

loop_
  _atom_site_type_symbol
  _atom_site_label
  _atom_site_symmetry_multiplicity
  _atom_site_fract_x
  _atom_site_fract_y
  _atom_site_fract_z
  _atom_site_occupancy
  C   C1        1.0  0.03312  0.51893  0.33061  1.0000
  N   N1        1.0  0.03915  0.59246  0.26260  1.0000
  H   H1        1.0  0.05803  0.62611  0.24240  1.0000
  H   H2        1.0  0.00701  0.57361  0.23572  1.0000
  H   H3        1.0  0.04300  0.46122  0.38053  1.0000
  C   C2        1.0  0.06032  0.57000  0.30685  1.0000
  C   C3        1.0  0.06054  0.49707  0.36145  1.0000
  C   C4        1.0  0.11173  0.59761  0.32325  1.0000
  H   H4        1.0  0.12048  0.46500  0.24788  1.0000
  C   C5        1.0  0.13659  0.57302  0.34913  1.0000
  C   C6        1.0  0.11201  0.52256  0.36551  1.0000
  H   H5        1.0  0.12007  0.66186  0.44582  1.0000
  C   C7        1.0  0.97963  0.48954  0.33063  1.0000
  C   C8        1.0  0.90103  0.41085  0.32320  1.0000
  C   C9        1.0  0.95244  0.43849  0.30672  1.0000
  N   N2        1.0  0.97368  0.41606  0.26252  1.0000
  H   H6        1.0  0.95458  0.38257  0.24166  1.0000
  C   C10       1.0  0.52109  0.49223  0.33072  1.0000
  C   C11       1.0  0.59976  0.49228  0.32328  1.0000
  C   C12       1.0  0.57214  0.51608  0.30682  1.0000
  C   C13       1.0  0.49168  0.51631  0.33067  1.0000
  C   C14       1.0  0.44063  0.49245  0.30680  1.0000
  C   C15       1.0  0.41300  0.51624  0.32319  1.0000
  N   N3        1.0  0.59459  0.55976  0.26269  1.0000
  N   N4        1.0  0.41819  0.44882  0.26255  1.0000
  H   H7        1.0  0.57556  0.57269  0.23528  1.0000
  H   H8        1.0  0.62808  0.57415  0.24184  1.0000
  H   H9        1.0  0.38455  0.43406  0.24230  1.0000
  H   H10       1.0  0.43705  0.43555  0.23569  1.0000
  C   C16       1.0  0.51844  0.03100  0.33069  1.0000
  C   C17       1.0  0.51836  0.10961  0.32334  1.0000
  C   C18       1.0  0.49458  0.05820  0.30687  1.0000
  C   C19       1.0  0.49436  0.97751  0.33073  1.0000
  C   C20       1.0  0.51823  0.95032  0.30685  1.0000
  C   C21       1.0  0.49444  0.89891  0.32330  1.0000
  N   N5        1.0  0.45091  0.03701  0.26273  1.0000
  N   N6        1.0  0.56191  0.97155  0.26271  1.0000
  H   H11       1.0  0.43788  0.00498  0.23551  1.0000
  H   H12       1.0  0.43628  0.05595  0.24219  1.0000
  H   H13       1.0  0.57632  0.95248  0.24182  1.0000
  H   H14       1.0  0.57476  0.00349  0.23524  1.0000
  C   C22       1.0  0.18285  0.46399  0.29249  1.0000
  C   C23       1.0  0.14394  0.47340  0.30101  1.0000
  H   H15       1.0  0.18540  0.44775  0.23483  1.0000
  C   C24       1.0  0.33916  0.50898  0.25234  1.0000
  C   C25       1.0  0.29151  0.50095  0.26372  1.0000
  H   H16       1.0  0.35936  0.52951  0.19884  1.0000
  H   H17       1.0  0.27876  0.51572  0.21720  1.0000
  C   C26       1.0  0.54673  0.72107  0.29265  1.0000
  C   C27       1.0  0.53731  0.67275  0.30113  1.0000
  H   H18       1.0  0.56304  0.73990  0.23505  1.0000
  H   H19       1.0  0.54577  0.65772  0.24802  1.0000
  C   C28       1.0  0.50175  0.83238  0.25226  1.0000
  C   C29       1.0  0.50977  0.79276  0.26372  1.0000
  H   H20       1.0  0.48128  0.83209  0.19870  1.0000
  H   H21       1.0  0.49507  0.76527  0.21715  1.0000
  C   C30       1.0  0.28962  0.82777  0.29258  1.0000
  C   C31       1.0  0.33794  0.86668  0.30106  1.0000
  H   H22       1.0  0.27080  0.82523  0.23495  1.0000
  H   H23       1.0  0.35298  0.89015  0.24792  1.0000
  C   C32       1.0  0.17831  0.67147  0.25241  1.0000
  C   C33       1.0  0.21795  0.71910  0.26384  1.0000
  H   H24       1.0  0.17861  0.65128  0.19886  1.0000
  H   H25       1.0  0.24542  0.73188  0.21722  1.0000
  C   C34       1.0  0.82990  0.54449  0.29265  1.0000
  C   C35       1.0  0.86880  0.53507  0.30118  1.0000
  H   H26       1.0  0.82738  0.56077  0.23502  1.0000
  H   H27       1.0  0.89229  0.54351  0.24806  1.0000
  C   C36       1.0  0.67360  0.49954  0.25243  1.0000
  C   C37       1.0  0.72122  0.50751  0.26387  1.0000
  H   H28       1.0  0.65341  0.47906  0.19888  1.0000
  H   H29       1.0  0.73400  0.49282  0.21725  1.0000
  C   C38       1.0  0.46608  0.28750  0.29266  1.0000
  C   C39       1.0  0.47550  0.33582  0.30116  1.0000
  H   H30       1.0  0.44981  0.26869  0.23503  1.0000
  H   H31       1.0  0.46708  0.35086  0.24802  1.0000
  C   C40       1.0  0.51107  0.17618  0.25248  1.0000
  C   C41       1.0  0.50309  0.21582  0.26392  1.0000
  H   H32       1.0  0.53156  0.17648  0.19894  1.0000
  H   H33       1.0  0.51777  0.24329  0.21729  1.0000
  C   C42       1.0  0.72313  0.18072  0.29256  1.0000
  C   C43       1.0  0.67482  0.14181  0.30108  1.0000
  H   H34       1.0  0.74194  0.18326  0.23492  1.0000
  H   H35       1.0  0.65977  0.11833  0.24796  1.0000
  C   C44       1.0  0.83444  0.33699  0.25215  1.0000
  C   C45       1.0  0.79479  0.28937  0.26368  1.0000
  H   H36       1.0  0.83413  0.35717  0.19860  1.0000
  H   H37       1.0  0.76732  0.27657  0.21708  1.0000
  C   C46       1.0  0.95221  0.51137  0.36153  1.0000
  C   C47       1.0  0.90074  0.48587  0.36569  1.0000
  C   C48       1.0  0.87616  0.43542  0.34917  1.0000
  H   H38       1.0  0.96975  0.54721  0.38072  1.0000
  H   H39       1.0  0.83879  0.41616  0.35434  1.0000
  H   H40       1.0  0.17396  0.59228  0.35439  1.0000
  C   C49       1.0  0.49922  0.44295  0.36155  1.0000
  C   C50       1.0  0.52471  0.41697  0.36561  1.0000
  C   C51       1.0  0.57516  0.44283  0.34915  1.0000
  H   H41       1.0  0.46338  0.42466  0.38073  1.0000
  H   H42       1.0  0.59442  0.42471  0.35441  1.0000
  C   C52       1.0  0.43759  0.56569  0.34907  1.0000
  C   C53       1.0  0.48805  0.59158  0.36544  1.0000
  C   C54       1.0  0.51354  0.56560  0.36147  1.0000
  H   H43       1.0  0.41832  0.58380  0.35431  1.0000
  H   H44       1.0  0.54938  0.58390  0.38063  1.0000
  C   C55       1.0  0.56772  0.05843  0.36150  1.0000
  C   C56       1.0  0.59371  0.10990  0.36547  1.0000
  C   C57       1.0  0.56782  0.13448  0.34917  1.0000
  H   H45       1.0  0.58604  0.04089  0.38061  1.0000
  H   H46       1.0  0.58593  0.17185  0.35439  1.0000
  C   C58       1.0  0.44498  0.87403  0.34912  1.0000
  C   C59       1.0  0.41909  0.89861  0.36546  1.0000
  C   C60       1.0  0.44507  0.95008  0.36150  1.0000
  H   H47       1.0  0.42686  0.83666  0.35430  1.0000
  H   H48       1.0  0.42676  0.96761  0.38065  1.0000
  C   C61       1.0  0.14089  0.49958  0.37550  1.0000
  C   C62       1.0  0.17675  0.51415  0.44418  1.0000
  C   C63       1.0  0.21539  0.50392  0.43501  1.0000
  C   C64       1.0  0.22000  0.48001  0.35831  1.0000
  C   C65       1.0  0.26418  0.47872  0.34259  1.0000
  C   C66       1.0  0.28509  0.46174  0.40796  1.0000
  C   C67       1.0  0.33289  0.46934  0.39487  1.0000
  C   C68       1.0  0.36100  0.49403  0.31847  1.0000
  H   H49       1.0  0.34874  0.46027  0.44567  1.0000
  H   H50       1.0  0.24263  0.51786  0.48204  1.0000
  N   N7        1.0  0.25837  0.43859  0.48680  1.0000
  N   N8        1.0  0.17439  0.54065  0.51897  1.0000
  O   O1        1.0  0.28034  0.46149  0.55658  1.0000
  O   O2        1.0  0.21163  0.58234  0.52441  1.0000
  O   O3        1.0  0.25048  0.39563  0.49278  1.0000
  O   O4        1.0  0.17004  0.51820  0.59117  1.0000
  C   C69       1.0  0.51101  0.64342  0.37546  1.0000
  C   C70       1.0  0.49640  0.66471  0.44412  1.0000
  C   C71       1.0  0.50664  0.71358  0.43501  1.0000
  C   C72       1.0  0.53063  0.74216  0.35840  1.0000
  C   C73       1.0  0.53192  0.78763  0.34270  1.0000
  C   C74       1.0  0.54880  0.82547  0.40815  1.0000
  C   C75       1.0  0.54122  0.86568  0.39504  1.0000
  C   C76       1.0  0.51664  0.86909  0.31848  1.0000
  H   H51       1.0  0.55023  0.89058  0.44588  1.0000
  H   H52       1.0  0.49266  0.72686  0.48200  1.0000
  N   N9        1.0  0.57186  0.82186  0.48709  1.0000
  N   N10       1.0  0.46985  0.63582  0.51884  1.0000
  O   O5        1.0  0.54888  0.82088  0.55677  1.0000
  O   O6        1.0  0.42816  0.63139  0.52419  1.0000
  O   O7        1.0  0.61481  0.85693  0.49325  1.0000
  O   O8        1.0  0.49225  0.65388  0.59110  1.0000
  C   C77       1.0  0.36725  0.86973  0.37544  1.0000
  C   C78       1.0  0.34595  0.83386  0.44413  1.0000
  C   C79       1.0  0.29707  0.79523  0.43503  1.0000
  C   C80       1.0  0.26852  0.79062  0.35838  1.0000
  C   C81       1.0  0.22304  0.74643  0.34269  1.0000
  C   C82       1.0  0.18519  0.72552  0.40809  1.0000
  C   C83       1.0  0.14499  0.67772  0.39500  1.0000
  C   C84       1.0  0.14154  0.64962  0.31857  1.0000
  H   H53       1.0  0.28378  0.76798  0.48206  1.0000
  N   N11       1.0  0.18876  0.75222  0.48695  1.0000
  N   N12       1.0  0.37482  0.83621  0.51889  1.0000
  O   O9        1.0  0.18972  0.73026  0.55671  1.0000
  O   O10       1.0  0.37926  0.79896  0.52430  1.0000
  O   O11       1.0  0.15369  0.76010  0.49299  1.0000
  O   O12       1.0  0.35676  0.84058  0.59111  1.0000
  C   C85       1.0  0.87184  0.50882  0.37557  1.0000
  C   C86       1.0  0.83595  0.49424  0.44423  1.0000
  C   C87       1.0  0.79732  0.50449  0.43509  1.0000
  C   C88       1.0  0.79274  0.52845  0.35843  1.0000
  C   C89       1.0  0.74856  0.52975  0.34272  1.0000
  C   C90       1.0  0.72765  0.54670  0.40812  1.0000
  C   C91       1.0  0.67986  0.53912  0.39502  1.0000
  C   C92       1.0  0.65176  0.51448  0.31859  1.0000
  H   H54       1.0  0.66400  0.54818  0.44584  1.0000
  H   H55       1.0  0.77007  0.49054  0.48210  1.0000
  N   N13       1.0  0.75435  0.56983  0.48698  1.0000
  N   N14       1.0  0.83829  0.46771  0.51899  1.0000
  O   O13       1.0  0.73238  0.54690  0.55673  1.0000
  O   O14       1.0  0.80103  0.42602  0.52437  1.0000
  O   O15       1.0  0.76225  0.61278  0.49302  1.0000
  O   O16       1.0  0.84262  0.49013  0.59122  1.0000
  C   C93       1.0  0.50174  0.36512  0.37555  1.0000
  C   C94       1.0  0.51631  0.34382  0.44424  1.0000
  C   C95       1.0  0.50607  0.29494  0.43512  1.0000
  C   C96       1.0  0.48213  0.26639  0.35846  1.0000
  C   C97       1.0  0.48085  0.22092  0.34277  1.0000
  C   C98       1.0  0.46390  0.18306  0.40817  1.0000
  C   C99       1.0  0.47150  0.14286  0.39508  1.0000
  C   C100      1.0  0.49615  0.13941  0.31865  1.0000
  H   H56       1.0  0.46245  0.11794  0.44590  1.0000
  H   H57       1.0  0.52002  0.28165  0.48215  1.0000
  N   N15       1.0  0.44077  0.18663  0.48703  1.0000
  N   N16       1.0  0.54283  0.37269  0.51901  1.0000
  O   O17       1.0  0.46370  0.18759  0.55679  1.0000
  O   O18       1.0  0.58452  0.37712  0.52442  1.0000
  O   O19       1.0  0.39782  0.15156  0.49307  1.0000
  O   O20       1.0  0.52040  0.35462  0.59122  1.0000
  C   C101      1.0  0.64556  0.13878  0.37552  1.0000
  C   C102      1.0  0.66684  0.17465  0.44418  1.0000
  C   C103      1.0  0.71571  0.21330  0.43501  1.0000
  C   C104      1.0  0.74425  0.21789  0.35833  1.0000
  C   C105      1.0  0.78971  0.26208  0.34259  1.0000
  C   C106      1.0  0.82757  0.28304  0.40799  1.0000
  C   C107      1.0  0.86777  0.33083  0.39484  1.0000
  C   C108      1.0  0.87121  0.35885  0.31828  1.0000
  H   H58       1.0  0.89270  0.34672  0.44565  1.0000
  H   H59       1.0  0.72900  0.24056  0.48200  1.0000
  N   N17       1.0  0.82401  0.25638  0.48692  1.0000
  N   N18       1.0  0.63797  0.17230  0.51894  1.0000
  O   O21       1.0  0.82305  0.27838  0.55662  1.0000
  O   O22       1.0  0.63352  0.20955  0.52433  1.0000
  O   O23       1.0  0.85908  0.24850  0.49300  1.0000
  O   O24       1.0  0.65605  0.16797  0.59116  1.0000
  H   H60       1.0  0.00564  0.43510  0.23512  1.0000
