data_image0
_chemical_formula_structural       C4NC4NH4N2C4NC4NH4N2C4NC4NH4N2C2HC6H3CHC2HC6H3CHC2HC6H3CHC2HC6H3CHC2HC6H3CHC2HC6H3CHC2HC2H3N2C2HC2H3N2C2HC2H3N2C2NC2NHCH3CHC2NC2NHCH3CHC2NC2NHCH3CHC2NC2NHCH3CHC2NC2NHCH3CHC2NC2NHCH3CH
_chemical_formula_sum              "C126 N30 H84"
_cell_length_a       38.5537
_cell_length_b       38.5537
_cell_length_c       14.9621
_cell_angle_alpha    90
_cell_angle_beta     90
_cell_angle_gamma    120

_space_group_name_H-M_alt    "P 1"
_space_group_IT_number       1

loop_
  _space_group_symop_operation_xyz
  'x, y, z'

loop_
  _atom_site_type_symbol
  _atom_site_label
  _atom_site_symmetry_multiplicity
  _atom_site_fract_x
  _atom_site_fract_y
  _atom_site_fract_z
  _atom_site_occupancy
  C   C1        1.0  0.97985  0.49035  0.33184  1.0000
  C   C2        1.0  0.89279  0.44709  0.32526  1.0000
  C   C3        1.0  0.91431  0.42625  0.33350  1.0000
  C   C4        1.0  0.95662  0.44786  0.33863  1.0000
  N   N1        1.0  0.85182  0.42672  0.32093  1.0000
  C   C5        1.0  0.02380  0.51205  0.33193  1.0000
  C   C6        1.0  0.04703  0.55453  0.33913  1.0000
  C   C7        1.0  0.08934  0.57613  0.33419  1.0000
  C   C8        1.0  0.11086  0.55531  0.32573  1.0000
  N   N2        1.0  0.15183  0.57568  0.32153  1.0000
  H   H1        1.0  0.16747  0.60473  0.32364  1.0000
  H   H2        1.0  0.83619  0.39766  0.32277  1.0000
  H   H3        1.0  0.97026  0.43135  0.34712  1.0000
  H   H4        1.0  0.03339  0.57103  0.34782  1.0000
  N   N3        1.0  0.11029  0.61597  0.33476  1.0000
  N   N4        1.0  0.89337  0.38642  0.33370  1.0000
  C   C9        1.0  0.51288  0.49041  0.33153  1.0000
  C   C10       1.0  0.55679  0.44749  0.32569  1.0000
  C   C11       1.0  0.57711  0.48964  0.33837  1.0000
  C   C12       1.0  0.55512  0.50995  0.34350  1.0000
  N   N5        1.0  0.57755  0.42728  0.32176  1.0000
  C   C13       1.0  0.49090  0.51220  0.33148  1.0000
  C   C14       1.0  0.44867  0.49269  0.34362  1.0000
  C   C15       1.0  0.42669  0.51300  0.33842  1.0000
  C   C16       1.0  0.44701  0.55514  0.32546  1.0000
  N   N6        1.0  0.42626  0.57535  0.32145  1.0000
  H   H5        1.0  0.39728  0.56182  0.32692  1.0000
  H   H6        1.0  0.60654  0.44084  0.32708  1.0000
  H   H7        1.0  0.57094  0.53990  0.35600  1.0000
  H   H8        1.0  0.43284  0.46274  0.35623  1.0000
  N   N7        1.0  0.38689  0.49380  0.34181  1.0000
  N   N8        1.0  0.61691  0.50885  0.34172  1.0000
  C   C17       1.0  0.51291  0.02315  0.33055  1.0000
  C   C18       1.0  0.55624  0.10999  0.32417  1.0000
  C   C19       1.0  0.51408  0.08837  0.33673  1.0000
  C   C20       1.0  0.49358  0.04607  0.34218  1.0000
  N   N9        1.0  0.57666  0.15096  0.32011  1.0000
  C   C21       1.0  0.49095  0.97936  0.33051  1.0000
  C   C22       1.0  0.51032  0.95645  0.34166  1.0000
  C   C23       1.0  0.48985  0.91416  0.33602  1.0000
  C   C24       1.0  0.44767  0.89252  0.32383  1.0000
  N   N10       1.0  0.42728  0.85155  0.31953  1.0000
  H   H9        1.0  0.44072  0.83600  0.32448  1.0000
  H   H10       1.0  0.56326  0.16654  0.32551  1.0000
  H   H11       1.0  0.46362  0.03213  0.35453  1.0000
  H   H12       1.0  0.54030  0.97041  0.35374  1.0000
  N   N11       1.0  0.50891  0.89341  0.33813  1.0000
  N   N12       1.0  0.49506  0.10916  0.33926  1.0000
  C   C25       1.0  0.26772  0.45792  0.26645  1.0000
  C   C26       1.0  0.30511  0.45972  0.27277  1.0000
  H   H13       1.0  0.32285  0.46682  0.21702  1.0000
  C   C27       1.0  0.20720  0.44892  0.34169  1.0000
  C   C28       1.0  0.13603  0.45274  0.34019  1.0000
  C   C29       1.0  0.15841  0.45955  0.26069  1.0000
  C   C30       1.0  0.19411  0.45770  0.26036  1.0000
  C   C31       1.0  0.21757  0.46564  0.18249  1.0000
  C   C32       1.0  0.25403  0.46565  0.18546  1.0000
  H   H14       1.0  0.20869  0.47219  0.12346  1.0000
  H   H15       1.0  0.27088  0.47222  0.12851  1.0000
  H   H16       1.0  0.14930  0.46714  0.20325  1.0000
  C   C33       1.0  0.10389  0.45926  0.34463  1.0000
  H   H17       1.0  0.07947  0.44061  0.37881  1.0000
  C   C34       1.0  0.54392  0.80983  0.25869  1.0000
  C   C35       1.0  0.54229  0.84549  0.26601  1.0000
  H   H18       1.0  0.53492  0.85622  0.21083  1.0000
  C   C36       1.0  0.55324  0.75818  0.33225  1.0000
  C   C37       1.0  0.54946  0.68324  0.32919  1.0000
  C   C38       1.0  0.54204  0.69875  0.25037  1.0000
  C   C39       1.0  0.54389  0.73630  0.25082  1.0000
  C   C40       1.0  0.53552  0.75192  0.17369  1.0000
  C   C41       1.0  0.53565  0.78844  0.17752  1.0000
  H   H19       1.0  0.52857  0.73652  0.11458  1.0000
  H   H20       1.0  0.52875  0.79877  0.12113  1.0000
  H   H21       1.0  0.53404  0.68202  0.19294  1.0000
  C   C42       1.0  0.54315  0.64466  0.33322  1.0000
  H   H22       1.0  0.56264  0.63933  0.36506  1.0000
  C   C43       1.0  0.19366  0.73512  0.25483  1.0000
  C   C44       1.0  0.15805  0.69774  0.26130  1.0000
  H   H23       1.0  0.14733  0.67995  0.20563  1.0000
  C   C45       1.0  0.24513  0.79573  0.32992  1.0000
  C   C46       1.0  0.31983  0.86715  0.32834  1.0000
  C   C47       1.0  0.30443  0.84469  0.24889  1.0000
  C   C48       1.0  0.26698  0.80887  0.24858  1.0000
  C   C49       1.0  0.25148  0.78534  0.17077  1.0000
  C   C50       1.0  0.21507  0.74882  0.17381  1.0000
  H   H24       1.0  0.26688  0.79425  0.11170  1.0000
  H   H25       1.0  0.20478  0.73197  0.11688  1.0000
  H   H26       1.0  0.32115  0.85387  0.19148  1.0000
  C   C51       1.0  0.35837  0.89946  0.33290  1.0000
  H   H27       1.0  0.36369  0.92396  0.36615  1.0000
  C   C52       1.0  0.73609  0.54472  0.26584  1.0000
  C   C53       1.0  0.69870  0.54293  0.27203  1.0000
  H   H28       1.0  0.68097  0.53580  0.21624  1.0000
  C   C54       1.0  0.79656  0.55371  0.34130  1.0000
  C   C55       1.0  0.86764  0.54973  0.34020  1.0000
  C   C56       1.0  0.84529  0.54288  0.26064  1.0000
  C   C57       1.0  0.80964  0.54482  0.26010  1.0000
  C   C58       1.0  0.78621  0.53684  0.18217  1.0000
  C   C59       1.0  0.74979  0.53691  0.18496  1.0000
  H   H29       1.0  0.79508  0.53020  0.12324  1.0000
  H   H30       1.0  0.73293  0.53026  0.12801  1.0000
  H   H31       1.0  0.85440  0.53523  0.20328  1.0000
  C   C60       1.0  0.89973  0.54313  0.34481  1.0000
  H   H32       1.0  0.92427  0.56196  0.37842  1.0000
  C   C61       1.0  0.46028  0.19289  0.25979  1.0000
  C   C62       1.0  0.46192  0.15724  0.26718  1.0000
  H   H33       1.0  0.46943  0.14657  0.21210  1.0000
  C   C63       1.0  0.45072  0.24444  0.33313  1.0000
  C   C64       1.0  0.45442  0.31934  0.32993  1.0000
  C   C65       1.0  0.46205  0.30391  0.25125  1.0000
  C   C66       1.0  0.46024  0.26637  0.25176  1.0000
  C   C67       1.0  0.46883  0.25085  0.17478  1.0000
  C   C68       1.0  0.46874  0.21436  0.17869  1.0000
  H   H34       1.0  0.47590  0.26631  0.11573  1.0000
  H   H35       1.0  0.47576  0.20407  0.12240  1.0000
  H   H36       1.0  0.47018  0.32068  0.19389  1.0000
  C   C69       1.0  0.46069  0.35790  0.33396  1.0000
  H   H37       1.0  0.44119  0.36327  0.36562  1.0000
  C   C70       1.0  0.81033  0.26704  0.25408  1.0000
  C   C71       1.0  0.84592  0.30444  0.26055  1.0000
  H   H38       1.0  0.85686  0.32205  0.20467  1.0000
  C   C72       1.0  0.75859  0.20667  0.32939  1.0000
  C   C73       1.0  0.68393  0.13522  0.32764  1.0000
  C   C74       1.0  0.69959  0.15742  0.24797  1.0000
  C   C75       1.0  0.73703  0.19326  0.24774  1.0000
  C   C76       1.0  0.75282  0.21653  0.16970  1.0000
  C   C77       1.0  0.78921  0.25307  0.17279  1.0000
  H   H39       1.0  0.73764  0.20743  0.11039  1.0000
  H   H40       1.0  0.79971  0.26974  0.11566  1.0000
  H   H41       1.0  0.68307  0.14803  0.19031  1.0000
  C   C78       1.0  0.64542  0.10287  0.33198  1.0000
  H   H42       1.0  0.64004  0.07849  0.36585  1.0000
  C   C79       1.0  0.95709  0.51009  0.32379  1.0000
  C   C80       1.0  0.91474  0.48958  0.32302  1.0000
  H   H43       1.0  0.97100  0.54031  0.31619  1.0000
  C   C81       1.0  0.08891  0.51282  0.32306  1.0000
  C   C82       1.0  0.04656  0.49233  0.32369  1.0000
  H   H44       1.0  0.03265  0.46211  0.31569  1.0000
  H   H45       1.0  0.16713  0.56202  0.31539  1.0000
  H   H46       1.0  0.83652  0.44038  0.31495  1.0000
  N   N13       1.0  0.10953  0.49360  0.32000  1.0000
  N   N14       1.0  0.89410  0.50879  0.32024  1.0000
  C   C83       1.0  0.49357  0.44823  0.31857  1.0000
  C   C84       1.0  0.51438  0.42668  0.31851  1.0000
  H   H47       1.0  0.46355  0.43218  0.30668  1.0000
  C   C85       1.0  0.48941  0.57592  0.31809  1.0000
  C   C86       1.0  0.51021  0.55436  0.31824  1.0000
  H   H48       1.0  0.54021  0.57038  0.30618  1.0000
  H   H49       1.0  0.43953  0.60413  0.31208  1.0000
  H   H50       1.0  0.56429  0.39850  0.31258  1.0000
  N   N15       1.0  0.50829  0.61571  0.31256  1.0000
  N   N16       1.0  0.49553  0.38689  0.31321  1.0000
  C   C87       1.0  0.55508  0.04582  0.31746  1.0000
  C   C88       1.0  0.57682  0.08818  0.31711  1.0000
  H   H51       1.0  0.57101  0.03174  0.30551  1.0000
  C   C89       1.0  0.42704  0.91431  0.31740  1.0000
  C   C90       1.0  0.44874  0.95667  0.31789  1.0000
  H   H52       1.0  0.43276  0.97074  0.30648  1.0000
  H   H53       1.0  0.39847  0.83616  0.31086  1.0000
  H   H54       1.0  0.60546  0.16634  0.31123  1.0000
  N   N17       1.0  0.38727  0.89356  0.31161  1.0000
  N   N18       1.0  0.61658  0.10887  0.31083  1.0000
  C   C91       1.0  0.31906  0.45337  0.35529  1.0000
  C   C92       1.0  0.29391  0.44415  0.43139  1.0000
  N   N19       1.0  0.25805  0.44268  0.42249  1.0000
  C   C93       1.0  0.24397  0.44916  0.34472  1.0000
  C   C94       1.0  0.15003  0.44307  0.41825  1.0000
  N   N20       1.0  0.18464  0.44192  0.41654  1.0000
  H   H55       1.0  0.13551  0.43866  0.47798  1.0000
  C   C95       1.0  0.30533  0.43758  0.52162  1.0000
  H   H56       1.0  0.31026  0.41207  0.52035  1.0000
  H   H57       1.0  0.28197  0.43144  0.57068  1.0000
  H   H58       1.0  0.33280  0.46418  0.54315  1.0000
  C   C96       1.0  0.35741  0.45900  0.36045  1.0000
  H   H59       1.0  0.36176  0.43711  0.38193  1.0000
  C   C97       1.0  0.54919  0.86572  0.34877  1.0000
  C   C98       1.0  0.55872  0.84963  0.42411  1.0000
  N   N21       1.0  0.56002  0.81520  0.41424  1.0000
  C   C99       1.0  0.55307  0.79473  0.33620  1.0000
  C   C100      1.0  0.55964  0.70690  0.40734  1.0000
  N   N22       1.0  0.56076  0.74263  0.40642  1.0000
  H   H60       1.0  0.56450  0.69681  0.46663  1.0000
  C   C101      1.0  0.56574  0.86747  0.51457  1.0000
  H   H61       1.0  0.59129  0.89788  0.51319  1.0000
  H   H62       1.0  0.57204  0.85011  0.56294  1.0000
  H   H63       1.0  0.53928  0.86837  0.53709  1.0000
  C   C102      1.0  0.54379  0.89856  0.35503  1.0000
  H   H64       1.0  0.56599  0.92480  0.37561  1.0000
  C   C103      1.0  0.13779  0.68393  0.34387  1.0000
  C   C104      1.0  0.15383  0.70906  0.41998  1.0000
  N   N23       1.0  0.18821  0.74487  0.41091  1.0000
  C   C105      1.0  0.20868  0.75890  0.33304  1.0000
  C   C106      1.0  0.29621  0.85303  0.40644  1.0000
  N   N24       1.0  0.26058  0.81832  0.40477  1.0000
  H   H65       1.0  0.30623  0.86762  0.46613  1.0000
  C   C107      1.0  0.13598  0.69764  0.51033  1.0000
  H   H66       1.0  0.10555  0.69272  0.50936  1.0000
  H   H67       1.0  0.15329  0.72100  0.55934  1.0000
  H   H68       1.0  0.13514  0.67016  0.53173  1.0000
  C   C108      1.0  0.10493  0.64574  0.34935  1.0000
  H   H69       1.0  0.07855  0.64179  0.36853  1.0000
  C   C109      1.0  0.68476  0.54938  0.35444  1.0000
  C   C110      1.0  0.70989  0.55867  0.43059  1.0000
  N   N25       1.0  0.74573  0.56009  0.42183  1.0000
  C   C111      1.0  0.75981  0.55352  0.34417  1.0000
  C   C112      1.0  0.85366  0.55954  0.41811  1.0000
  N   N26       1.0  0.81910  0.56075  0.41622  1.0000
  H   H70       1.0  0.86816  0.56398  0.47788  1.0000
  C   C113      1.0  0.69845  0.56531  0.52072  1.0000
  H   H71       1.0  0.69351  0.59081  0.51926  1.0000
  H   H72       1.0  0.72180  0.57150  0.56984  1.0000
  H   H73       1.0  0.67098  0.53872  0.54231  1.0000
  C   C114      1.0  0.64642  0.54376  0.35952  1.0000
  H   H74       1.0  0.64211  0.56583  0.37978  1.0000
  C   C115      1.0  0.45486  0.13694  0.34989  1.0000
  C   C116      1.0  0.44510  0.15292  0.42507  1.0000
  N   N27       1.0  0.44378  0.18735  0.41514  1.0000
  C   C117      1.0  0.45092  0.20790  0.33716  1.0000
  C   C118      1.0  0.44407  0.29562  0.40801  1.0000
  N   N28       1.0  0.44301  0.25991  0.40716  1.0000
  H   H75       1.0  0.43906  0.30565  0.46721  1.0000
  C   C119      1.0  0.43785  0.13499  0.51545  1.0000
  H   H76       1.0  0.41232  0.10457  0.51377  1.0000
  H   H77       1.0  0.43140  0.15227  0.56371  1.0000
  H   H78       1.0  0.46427  0.13409  0.53834  1.0000
  C   C120      1.0  0.46021  0.10408  0.35624  1.0000
  H   H79       1.0  0.43791  0.07777  0.37621  1.0000
  C   C121      1.0  0.86588  0.31849  0.34336  1.0000
  C   C122      1.0  0.84954  0.29363  0.41975  1.0000
  N   N29       1.0  0.81520  0.25778  0.41067  1.0000
  C   C123      1.0  0.79502  0.24351  0.33255  1.0000
  C   C124      1.0  0.70729  0.14958  0.40605  1.0000
  N   N30       1.0  0.74290  0.18432  0.40445  1.0000
  H   H80       1.0  0.69704  0.13522  0.46591  1.0000
  C   C125      1.0  0.86705  0.30532  0.51035  1.0000
  H   H81       1.0  0.89748  0.31021  0.51030  1.0000
  H   H82       1.0  0.84954  0.28213  0.55952  1.0000
  H   H83       1.0  0.86785  0.33288  0.53083  1.0000
  C   C126      1.0  0.89875  0.35668  0.34871  1.0000
  H   H84       1.0  0.92499  0.36070  0.36920  1.0000
