data_image0
_chemical_formula_structural       C5NC3H2CO2NHCNC3H2CO2NHCNC3H2CO2NHC5H3C2O3C5H3C2O3C4HC2NHCHO2HNHC4HC2NHCHO2HNHC4HC2NHCHO2HNH
_chemical_formula_sum              "C54 N12 H30 O18"
_cell_length_a       29.1013
_cell_length_b       29.1013
_cell_length_c       15.0424
_cell_angle_alpha    90
_cell_angle_beta     90
_cell_angle_gamma    120

_space_group_name_H-M_alt    "P 1"
_space_group_IT_number       1

loop_
  _space_group_symop_operation_xyz
  'x, y, z'

loop_
  _atom_site_type_symbol
  _atom_site_label
  _atom_site_symmetry_multiplicity
  _atom_site_fract_x
  _atom_site_fract_y
  _atom_site_fract_z
  _atom_site_occupancy
  C   C1        1.0  0.37031  0.65177  0.32979  1.0000
  C   C2        1.0  0.41188  0.63979  0.32690  1.0000
  C   C3        1.0  0.63937  0.36377  0.30515  1.0000
  C   C4        1.0  0.61393  0.39436  0.31997  1.0000
  C   C5        1.0  0.46753  0.57675  0.29568  1.0000
  N   N1        1.0  0.50450  0.56168  0.29664  1.0000
  C   C6        1.0  0.59979  0.55090  0.28794  1.0000
  C   C7        1.0  0.62603  0.52153  0.27595  1.0000
  C   C8        1.0  0.61557  0.47832  0.33175  1.0000
  H   H1        1.0  0.65194  0.53042  0.22397  1.0000
  H   H2        1.0  0.45185  0.57887  0.23608  1.0000
  C   C9        1.0  0.61252  0.59303  0.23033  1.0000
  O   O1        1.0  0.59246  0.58176  0.15641  1.0000
  O   O2        1.0  0.62487  0.63783  0.25758  1.0000
  N   N2        1.0  0.63917  0.44846  0.31575  1.0000
  H   H3        1.0  0.67439  0.46701  0.28931  1.0000
  C   C10       1.0  0.41529  0.88938  0.29401  1.0000
  N   N3        1.0  0.43479  0.94232  0.29367  1.0000
  C   C11       1.0  0.44843  0.05051  0.29788  1.0000
  C   C12       1.0  0.47569  0.10610  0.28560  1.0000
  C   C13       1.0  0.52595  0.13839  0.32404  1.0000
  H   H4        1.0  0.45953  0.12348  0.24699  1.0000
  H   H5        1.0  0.40563  0.86974  0.23466  1.0000
  C   C14       1.0  0.39935  0.02105  0.25681  1.0000
  O   O3        1.0  0.39985  0.00970  0.17872  1.0000
  O   O4        1.0  0.35903  0.98966  0.29822  1.0000
  N   N4        1.0  0.55153  0.19180  0.31295  1.0000
  H   H6        1.0  0.53660  0.21015  0.34558  1.0000
  C   C15       1.0  0.10191  0.52371  0.30056  1.0000
  N   N5        1.0  0.04955  0.48774  0.30390  1.0000
  C   C16       1.0  0.94244  0.39000  0.31212  1.0000
  C   C17       1.0  0.88653  0.36239  0.30417  1.0000
  C   C18       1.0  0.85555  0.37895  0.35159  1.0000
  H   H7        1.0  0.86802  0.33105  0.26104  1.0000
  H   H8        1.0  0.11936  0.53691  0.23988  1.0000
  C   C19       1.0  0.97075  0.37233  0.26200  1.0000
  O   O5        1.0  0.97885  0.38652  0.18436  1.0000
  O   O6        1.0  0.00391  0.36301  0.29598  1.0000
  N   N6        1.0  0.80209  0.35429  0.33939  1.0000
  H   H9        1.0  0.78240  0.31646  0.35198  1.0000
  C   C20       1.0  0.34083  0.71770  0.33118  1.0000
  C   C21       1.0  0.28762  0.67589  0.33086  1.0000
  C   C22       1.0  0.27492  0.62224  0.33085  1.0000
  C   C23       1.0  0.31671  0.61079  0.32993  1.0000
  C   C24       1.0  0.38173  0.70495  0.32951  1.0000
  H   H10       1.0  0.30797  0.57205  0.32863  1.0000
  H   H11       1.0  0.42050  0.73486  0.32763  1.0000
  H   H12       1.0  0.25765  0.68467  0.33013  1.0000
  C   C25       1.0  0.35307  0.77142  0.33000  1.0000
  C   C26       1.0  0.22126  0.58073  0.32918  1.0000
  O   O7        1.0  0.45515  0.67164  0.27716  1.0000
  O   O8        1.0  0.31986  0.78316  0.28510  1.0000
  O   O9        1.0  0.20942  0.53661  0.28162  1.0000
  C   C27       1.0  0.63177  0.27608  0.28062  1.0000
  C   C28       1.0  0.68760  0.30044  0.28554  1.0000
  C   C29       1.0  0.71998  0.35528  0.30270  1.0000
  C   C30       1.0  0.69492  0.38592  0.31322  1.0000
  C   C31       1.0  0.60874  0.30865  0.28826  1.0000
  H   H13       1.0  0.71772  0.42490  0.33082  1.0000
  H   H14       1.0  0.56856  0.29170  0.28111  1.0000
  H   H15       1.0  0.70475  0.27743  0.27817  1.0000
  C   C32       1.0  0.60005  0.21987  0.27363  1.0000
  C   C33       1.0  0.77615  0.37990  0.31178  1.0000
  O   O10       1.0  0.56092  0.36743  0.33559  1.0000
  O   O11       1.0  0.62125  0.19305  0.23330  1.0000
  O   O12       1.0  0.80526  0.43202  0.29002  1.0000
  C   C34       1.0  0.44974  0.58710  0.37628  1.0000
  C   C35       1.0  0.52763  0.55643  0.37148  1.0000
  C   C36       1.0  0.51062  0.56541  0.45528  1.0000
  C   C37       1.0  0.47118  0.58029  0.45608  1.0000
  H   H16       1.0  0.45846  0.58746  0.51531  1.0000
  C   C38       1.0  0.56276  0.53637  0.35913  1.0000
  C   C39       1.0  0.58111  0.46830  0.40438  1.0000
  N   N7        1.0  0.55566  0.49613  0.41362  1.0000
  H   H17       1.0  0.57352  0.43905  0.44934  1.0000
  C   C40       1.0  0.53155  0.56206  0.53598  1.0000
  H   H18       1.0  0.63808  0.65009  0.31105  1.0000
  O   O13       1.0  0.50521  0.52214  0.58083  1.0000
  O   O14       1.0  0.58014  0.58847  0.54657  1.0000
  H   H19       1.0  0.59700  0.58590  0.59367  1.0000
  N   N8        1.0  0.41112  0.60068  0.37766  1.0000
  H   H20       1.0  0.38400  0.58442  0.42369  1.0000
  C   C41       1.0  0.41114  0.86285  0.37463  1.0000
  C   C42       1.0  0.45089  0.97326  0.36755  1.0000
  C   C43       1.0  0.44922  0.94934  0.45102  1.0000
  C   C44       1.0  0.42926  0.89391  0.45263  1.0000
  H   H21       1.0  0.42718  0.87538  0.51183  1.0000
  C   C45       1.0  0.47222  0.02832  0.35306  1.0000
  C   C46       1.0  0.54749  0.11435  0.37812  1.0000
  N   N9        1.0  0.52043  0.06119  0.38988  1.0000
  H   H22       1.0  0.58337  0.13644  0.40874  1.0000
  C   C47       1.0  0.46501  0.97691  0.53126  1.0000
  H   H23       1.0  0.35437  0.99192  0.35589  1.0000
  O   O15       1.0  0.50305  0.97897  0.56952  1.0000
  O   O16       1.0  0.45231  0.00965  0.55527  1.0000
  H   H24       1.0  0.42547  0.01202  0.53277  1.0000
  N   N10       1.0  0.39442  0.80980  0.37723  1.0000
  H   H25       1.0  0.41215  0.79861  0.41995  1.0000
  C   C48       1.0  0.13086  0.54423  0.37993  1.0000
  C   C49       1.0  0.02182  0.46836  0.38060  1.0000
  C   C50       1.0  0.04854  0.48787  0.46312  1.0000
  C   C51       1.0  0.10314  0.52629  0.46112  1.0000
  H   H26       1.0  0.12354  0.54092  0.51948  1.0000
  C   C52       1.0  0.96644  0.43387  0.37167  1.0000
  C   C53       1.0  0.88149  0.42195  0.41078  1.0000
  N   N11       1.0  0.93492  0.44762  0.41760  1.0000
  H   H27       1.0  0.86068  0.43502  0.44735  1.0000
  C   C54       1.0  0.02461  0.47015  0.54512  1.0000
  H   H28       1.0  0.00365  0.35426  0.35247  1.0000
  O   O17       1.0  0.01174  0.49846  0.58576  1.0000
  O   O18       1.0  0.00158  0.42194  0.56033  1.0000
  H   H29       1.0  0.98223  0.40694  0.60841  1.0000
  N   N12       1.0  0.18320  0.58255  0.37923  1.0000
  H   H30       1.0  0.19451  0.61057  0.42373  1.0000
