data_image0
_chemical_formula_structural       C2NC2O2HNCHNCHNCHC2NC2O2HC2NC2O2HC2NC2O2HC2NC2O2HNCHNCHC2NC2O2HC2NC2O2HNCHNCHC2NC2O2HC2NC2O2HNCHNCHC2NC2O2HC2NC2O2HNCHNCHNCHC2NC2O2HC6H3C6H3C6H3C6H3C6H3C6H3C6H3C6H3C6H3C6H3C6H3C6H3C6H3C6H3C6H3C6H3NCHC2NC2O2HC2NC2O2HC2NC2O2HNCHNCHNCHNCHC2NC2O2HC2NC2O2HNCHNCHC2NC2O2HC2NC2O2HNCHNCHC2NC2O2HC2NC2O2HNCHNCHC2NC2O2HC2NC2O2HC2NC2O2HNCH
_chemical_formula_sum              "C216 N48 O48 H96"
_cell_length_a       54.5543
_cell_length_b       28.1269
_cell_length_c       14.8526
_cell_angle_alpha    90
_cell_angle_beta     90
_cell_angle_gamma    90

_space_group_name_H-M_alt    "P 1"
_space_group_IT_number       1

loop_
  _space_group_symop_operation_xyz
  'x, y, z'

loop_
  _atom_site_type_symbol
  _atom_site_label
  _atom_site_symmetry_multiplicity
  _atom_site_fract_x
  _atom_site_fract_y
  _atom_site_fract_z
  _atom_site_occupancy
  C   C1        1.0  0.51711  0.54905  0.34379  1.0000
  C   C2        1.0  0.49241  0.46101  0.34208  1.0000
  N   N1        1.0  0.51299  0.46925  0.29257  1.0000
  C   C3        1.0  0.52575  0.51079  0.29000  1.0000
  C   C4        1.0  0.54518  0.51400  0.23005  1.0000
  O   O1        1.0  0.55955  0.48071  0.22653  1.0000
  O   O2        1.0  0.54355  0.53782  0.16033  1.0000
  H   H1        1.0  0.53259  0.56051  0.15059  1.0000
  N   N2        1.0  0.98684  0.01777  0.28224  1.0000
  C   C5        1.0  0.99756  0.97461  0.27216  1.0000
  H   H2        1.0  0.99229  0.95334  0.21982  1.0000
  N   N3        1.0  0.37893  0.35838  0.30943  1.0000
  C   C6        1.0  0.40254  0.37399  0.30504  1.0000
  H   H3        1.0  0.40662  0.40269  0.26561  1.0000
  N   N4        1.0  0.63022  0.65252  0.30914  1.0000
  C   C7        1.0  0.60659  0.63693  0.30550  1.0000
  H   H4        1.0  0.60243  0.60812  0.26648  1.0000
  C   C8        1.0  0.13751  0.81997  0.33318  1.0000
  C   C9        1.0  0.08767  0.84875  0.33810  1.0000
  N   N5        1.0  0.09562  0.81076  0.28952  1.0000
  C   C10       1.0  0.11918  0.79518  0.28363  1.0000
  C   C11       1.0  0.12387  0.75787  0.22495  1.0000
  O   O3        1.0  0.10943  0.72467  0.22231  1.0000
  O   O4        1.0  0.13608  0.76349  0.15559  1.0000
  H   H5        1.0  0.14576  0.78811  0.14456  1.0000
  C   C12       1.0  0.87152  0.19043  0.32910  1.0000
  C   C13       1.0  0.92123  0.16092  0.33581  1.0000
  N   N6        1.0  0.91360  0.19922  0.28740  1.0000
  C   C14       1.0  0.89010  0.21514  0.28068  1.0000
  C   C15       1.0  0.88573  0.25282  0.22245  1.0000
  O   O5        1.0  0.90019  0.28602  0.22207  1.0000
  O   O6        1.0  0.87369  0.24768  0.15261  1.0000
  H   H6        1.0  0.86403  0.22315  0.14065  1.0000
  C   C16       1.0  0.53664  0.21115  0.32025  1.0000
  C   C17       1.0  0.50602  0.29009  0.33599  1.0000
  N   N7        1.0  0.50432  0.26013  0.26484  1.0000
  C   C18       1.0  0.51895  0.22161  0.25243  1.0000
  C   C19       1.0  0.51501  0.19372  0.17636  1.0000
  O   O7        1.0  0.49430  0.19031  0.14554  1.0000
  O   O8        1.0  0.53165  0.18217  0.12427  1.0000
  H   H7        1.0  0.54749  0.18655  0.13427  1.0000
  C   C20       1.0  0.47234  0.79933  0.33145  1.0000
  C   C21       1.0  0.50297  0.72022  0.34335  1.0000
  N   N8        1.0  0.50447  0.75082  0.27311  1.0000
  C   C22       1.0  0.48982  0.78947  0.26265  1.0000
  C   C23       1.0  0.49349  0.81819  0.18755  1.0000
  O   O9        1.0  0.51416  0.82235  0.15665  1.0000
  O   O10       1.0  0.47674  0.82882  0.13522  1.0000
  H   H8        1.0  0.46094  0.82379  0.14523  1.0000
  N   N9        1.0  0.97061  0.74017  0.28674  1.0000
  C   C24       1.0  0.98424  0.78026  0.27740  1.0000
  H   H9        1.0  0.98210  0.80093  0.22132  1.0000
  N   N10       1.0  0.03855  0.26718  0.28739  1.0000
  C   C25       1.0  0.02477  0.22717  0.28037  1.0000
  H   H10       1.0  0.02653  0.20596  0.22484  1.0000
  C   C26       1.0  0.30455  0.09177  0.32655  1.0000
  C   C27       1.0  0.30878  0.19240  0.33408  1.0000
  N   N11       1.0  0.32190  0.16536  0.27556  1.0000
  C   C28       1.0  0.32043  0.11721  0.26726  1.0000
  C   C29       1.0  0.33451  0.09591  0.20046  1.0000
  O   O11       1.0  0.35503  0.11158  0.18566  1.0000
  O   O12       1.0  0.32525  0.07329  0.13777  1.0000
  H   H11       1.0  0.30986  0.06327  0.13599  1.0000
  C   C30       1.0  0.70450  0.91914  0.32510  1.0000
  C   C31       1.0  0.70049  0.81847  0.33179  1.0000
  N   N12       1.0  0.68714  0.84559  0.27409  1.0000
  C   C32       1.0  0.68851  0.89376  0.26617  1.0000
  C   C33       1.0  0.67414  0.91502  0.20013  1.0000
  O   O13       1.0  0.65348  0.89973  0.18670  1.0000
  O   O14       1.0  0.68314  0.93841  0.13789  1.0000
  H   H12       1.0  0.69853  0.94835  0.13546  1.0000
  N   N13       1.0  0.21787  0.61895  0.30574  1.0000
  C   C34       1.0  0.21697  0.66748  0.30185  1.0000
  H   H13       1.0  0.22726  0.68485  0.25472  1.0000
  N   N14       1.0  0.79108  0.39152  0.30168  1.0000
  C   C35       1.0  0.79207  0.34301  0.29762  1.0000
  H   H14       1.0  0.78177  0.32559  0.25054  1.0000
  C   C36       1.0  0.24408  0.42931  0.33902  1.0000
  C   C37       1.0  0.28293  0.36259  0.35042  1.0000
  N   N15       1.0  0.26415  0.35774  0.29113  1.0000
  C   C38       1.0  0.24507  0.38858  0.28170  1.0000
  C   C39       1.0  0.22836  0.37911  0.21339  1.0000
  O   O15       1.0  0.22227  0.33793  0.19941  1.0000
  O   O16       1.0  0.22528  0.40647  0.14922  1.0000
  H   H15       1.0  0.23060  0.43620  0.14679  1.0000
  C   C40       1.0  0.76505  0.58136  0.33542  1.0000
  C   C41       1.0  0.72628  0.64824  0.34774  1.0000
  N   N16       1.0  0.74496  0.65301  0.28798  1.0000
  C   C42       1.0  0.76399  0.62209  0.27810  1.0000
  C   C43       1.0  0.78060  0.63148  0.20938  1.0000
  O   O17       1.0  0.78671  0.67264  0.19527  1.0000
  O   O18       1.0  0.78354  0.60410  0.14516  1.0000
  H   H16       1.0  0.77817  0.57440  0.14285  1.0000
  N   N17       1.0  0.24572  0.93481  0.29247  1.0000
  C   C44       1.0  0.22635  0.90432  0.28638  1.0000
  H   H17       1.0  0.21290  0.91099  0.24020  1.0000
  N   N18       1.0  0.76320  0.07597  0.28974  1.0000
  C   C45       1.0  0.78255  0.10644  0.28298  1.0000
  H   H18       1.0  0.79580  0.09996  0.23590  1.0000
  C   C46       1.0  0.10648  0.41266  0.32408  1.0000
  C   C47       1.0  0.15459  0.44677  0.33796  1.0000
  N   N19       1.0  0.13913  0.46208  0.27256  1.0000
  C   C48       1.0  0.11577  0.44646  0.26129  1.0000
  C   C49       1.0  0.10253  0.46420  0.18863  1.0000
  O   O19       1.0  0.10549  0.50573  0.16683  1.0000
  O   O20       1.0  0.09417  0.43819  0.12901  1.0000
  H   H19       1.0  0.09301  0.40683  0.13247  1.0000
  C   C50       1.0  0.90300  0.59596  0.32280  1.0000
  C   C51       1.0  0.85459  0.56313  0.33323  1.0000
  N   N20       1.0  0.87050  0.54644  0.27052  1.0000
  C   C52       1.0  0.89404  0.56139  0.26091  1.0000
  C   C53       1.0  0.90778  0.54207  0.19100  1.0000
  O   O21       1.0  0.90493  0.50018  0.17169  1.0000
  O   O22       1.0  0.91704  0.56697  0.13140  1.0000
  H   H20       1.0  0.91829  0.59835  0.13311  1.0000
  N   N21       1.0  0.38701  0.89706  0.30131  1.0000
  C   C54       1.0  0.36327  0.91119  0.29378  1.0000
  H   H21       1.0  0.35273  0.89792  0.24273  1.0000
  N   N22       1.0  0.62236  0.11384  0.29712  1.0000
  C   C55       1.0  0.64614  0.09974  0.29138  1.0000
  H   H22       1.0  0.65694  0.11295  0.24103  1.0000
  N   N23       1.0  0.98509  0.50537  0.28633  1.0000
  C   C56       1.0  0.00081  0.46849  0.27768  1.0000
  H   H23       1.0  0.99777  0.44343  0.22908  1.0000
  C   C57       1.0  0.52144  0.04159  0.33602  1.0000
  C   C58       1.0  0.48773  0.96814  0.35262  1.0000
  N   N24       1.0  0.48521  0.00197  0.28828  1.0000
  C   C59       1.0  0.50101  0.03873  0.27675  1.0000
  C   C60       1.0  0.49701  0.06909  0.20447  1.0000
  O   O23       1.0  0.47597  0.08061  0.18647  1.0000
  O   O24       1.0  0.51152  0.07173  0.14069  1.0000
  H   H24       1.0  0.52680  0.06105  0.14120  1.0000
  C   C61       1.0  0.48934  0.32831  0.34201  1.0000
  C   C62       1.0  0.46378  0.32048  0.34304  1.0000
  C   C63       1.0  0.44681  0.35864  0.34607  1.0000
  C   C64       1.0  0.45637  0.40562  0.34575  1.0000
  C   C65       1.0  0.48201  0.41456  0.34335  1.0000
  C   C66       1.0  0.49815  0.37526  0.34237  1.0000
  H   H25       1.0  0.44450  0.43378  0.34735  1.0000
  H   H26       1.0  0.51674  0.38073  0.34102  1.0000
  H   H27       1.0  0.45748  0.28614  0.34169  1.0000
  C   C67       1.0  0.51976  0.68211  0.34779  1.0000
  C   C68       1.0  0.54529  0.69030  0.34679  1.0000
  C   C69       1.0  0.56240  0.65238  0.34770  1.0000
  C   C70       1.0  0.55297  0.60533  0.34687  1.0000
  C   C71       1.0  0.52736  0.59588  0.34639  1.0000
  C   C72       1.0  0.51111  0.63503  0.34818  1.0000
  H   H28       1.0  0.56497  0.57746  0.35036  1.0000
  H   H29       1.0  0.49255  0.62936  0.34540  1.0000
  H   H30       1.0  0.55146  0.72473  0.34566  1.0000
  C   C73       1.0  0.01943  0.82803  0.33449  1.0000
  C   C74       1.0  0.04500  0.82062  0.33934  1.0000
  C   C75       1.0  0.06190  0.85896  0.33979  1.0000
  C   C76       1.0  0.05214  0.90581  0.33950  1.0000
  C   C77       1.0  0.02653  0.91416  0.33229  1.0000
  C   C78       1.0  0.01049  0.87480  0.32932  1.0000
  H   H31       1.0  0.06383  0.93427  0.33970  1.0000
  H   H32       1.0  0.99189  0.88023  0.32897  1.0000
  H   H33       1.0  0.05138  0.78637  0.34267  1.0000
  C   C79       1.0  0.98957  0.18073  0.34039  1.0000
  C   C80       1.0  0.96400  0.18858  0.34046  1.0000
  C   C81       1.0  0.94696  0.15046  0.34000  1.0000
  C   C82       1.0  0.95653  0.10348  0.34334  1.0000
  C   C83       1.0  0.98216  0.09477  0.34609  1.0000
  C   C84       1.0  0.99837  0.13380  0.34177  1.0000
  H   H34       1.0  0.94475  0.07515  0.34358  1.0000
  H   H35       1.0  0.01695  0.12811  0.34211  1.0000
  H   H36       1.0  0.95777  0.22297  0.34042  1.0000
  C   C85       1.0  0.34593  0.30573  0.35291  1.0000
  C   C86       1.0  0.33904  0.25740  0.34261  1.0000
  C   C87       1.0  0.31426  0.24225  0.34136  1.0000
  C   C88       1.0  0.29592  0.27788  0.34620  1.0000
  C   C89       1.0  0.30179  0.32706  0.35248  1.0000
  C   C90       1.0  0.32690  0.33997  0.35652  1.0000
  H   H37       1.0  0.27790  0.26778  0.34332  1.0000
  H   H38       1.0  0.33149  0.37521  0.36092  1.0000
  H   H39       1.0  0.35251  0.23229  0.33647  1.0000
  C   C91       1.0  0.66332  0.70522  0.35133  1.0000
  C   C92       1.0  0.67024  0.75351  0.34071  1.0000
  C   C93       1.0  0.69502  0.76863  0.33911  1.0000
  C   C94       1.0  0.71334  0.73297  0.34371  1.0000
  C   C95       1.0  0.70745  0.68380  0.35017  1.0000
  C   C96       1.0  0.68233  0.67094  0.35467  1.0000
  H   H40       1.0  0.73137  0.74302  0.34057  1.0000
  H   H41       1.0  0.67774  0.63572  0.35925  1.0000
  H   H42       1.0  0.65677  0.77865  0.33465  1.0000
  C   C97       1.0  0.16289  0.80603  0.33798  1.0000
  C   C98       1.0  0.16975  0.75768  0.34825  1.0000
  C   C99       1.0  0.19451  0.74236  0.34907  1.0000
  C   C100      1.0  0.21287  0.77793  0.34399  1.0000
  C   C101      1.0  0.20706  0.82714  0.33780  1.0000
  C   C102      1.0  0.18196  0.84018  0.33414  1.0000
  H   H43       1.0  0.23089  0.76776  0.34649  1.0000
  H   H44       1.0  0.17741  0.87543  0.32964  1.0000
  H   H45       1.0  0.15624  0.73262  0.35447  1.0000
  C   C103      1.0  0.84616  0.20455  0.33334  1.0000
  C   C104      1.0  0.83932  0.25292  0.34355  1.0000
  C   C105      1.0  0.81456  0.26823  0.34472  1.0000
  C   C106      1.0  0.79618  0.23269  0.34007  1.0000
  C   C107      1.0  0.80199  0.18350  0.33391  1.0000
  C   C108      1.0  0.82708  0.17043  0.32983  1.0000
  H   H46       1.0  0.77817  0.24286  0.34297  1.0000
  H   H47       1.0  0.83159  0.13515  0.32548  1.0000
  H   H48       1.0  0.85283  0.27797  0.34972  1.0000
  C   C109      1.0  0.03850  0.42924  0.33286  1.0000
  C   C110      1.0  0.03033  0.38198  0.33731  1.0000
  C   C111      1.0  0.04703  0.34392  0.34545  1.0000
  C   C112      1.0  0.07250  0.35347  0.33986  1.0000
  C   C113      1.0  0.08115  0.40084  0.33110  1.0000
  C   C114      1.0  0.06385  0.43831  0.33294  1.0000
  H   H49       1.0  0.08474  0.32591  0.34257  1.0000
  H   H50       1.0  0.06971  0.47294  0.33179  1.0000
  H   H51       1.0  0.01182  0.37544  0.33934  1.0000
  C   C115      1.0  0.97074  0.57820  0.34597  1.0000
  C   C116      1.0  0.97896  0.62552  0.34669  1.0000
  C   C117      1.0  0.96242  0.66403  0.34932  1.0000
  C   C118      1.0  0.93702  0.65468  0.34038  1.0000
  C   C119      1.0  0.92831  0.60732  0.33250  1.0000
  C   C120      1.0  0.94540  0.56961  0.33885  1.0000
  H   H52       1.0  0.92488  0.68244  0.33915  1.0000
  H   H53       1.0  0.93935  0.53511  0.33920  1.0000
  H   H54       1.0  0.99746  0.63207  0.34650  1.0000
  C   C121      1.0  0.47072  0.93065  0.35530  1.0000
  C   C122      1.0  0.47892  0.88339  0.35169  1.0000
  C   C123      1.0  0.46223  0.84528  0.34399  1.0000
  C   C124      1.0  0.43676  0.85480  0.34967  1.0000
  C   C125      1.0  0.42808  0.90219  0.35784  1.0000
  C   C126      1.0  0.44536  0.93968  0.35520  1.0000
  H   H55       1.0  0.42454  0.82720  0.34729  1.0000
  H   H56       1.0  0.43949  0.97430  0.35563  1.0000
  H   H57       1.0  0.49742  0.87690  0.34933  1.0000
  C   C127      1.0  0.53853  0.07936  0.33740  1.0000
  C   C128      1.0  0.53034  0.12668  0.33490  1.0000
  C   C129      1.0  0.54690  0.16512  0.33084  1.0000
  C   C130      1.0  0.57230  0.15578  0.34015  1.0000
  C   C131      1.0  0.58100  0.10848  0.34978  1.0000
  C   C132      1.0  0.56386  0.07078  0.34481  1.0000
  H   H58       1.0  0.58445  0.18352  0.34030  1.0000
  H   H59       1.0  0.56988  0.03625  0.34564  1.0000
  H   H60       1.0  0.51185  0.13325  0.33474  1.0000
  C   C133      1.0  0.17812  0.46800  0.34460  1.0000
  C   C134      1.0  0.18063  0.51791  0.34397  1.0000
  C   C135      1.0  0.20369  0.54065  0.35301  1.0000
  C   C136      1.0  0.22494  0.51118  0.35062  1.0000
  C   C137      1.0  0.22324  0.46063  0.34536  1.0000
  C   C138      1.0  0.19952  0.44013  0.34842  1.0000
  H   H61       1.0  0.24188  0.52677  0.35283  1.0000
  H   H62       1.0  0.19763  0.40389  0.34939  1.0000
  H   H63       1.0  0.16505  0.53817  0.34023  1.0000
  C   C139      1.0  0.83097  0.54220  0.33931  1.0000
  C   C140      1.0  0.82834  0.49231  0.33915  1.0000
  C   C141      1.0  0.80525  0.46978  0.34881  1.0000
  C   C142      1.0  0.78406  0.49938  0.34675  1.0000
  C   C143      1.0  0.78585  0.54991  0.34115  1.0000
  C   C144      1.0  0.80963  0.57022  0.34344  1.0000
  H   H64       1.0  0.76710  0.48392  0.34952  1.0000
  H   H65       1.0  0.81157  0.60644  0.34430  1.0000
  H   H66       1.0  0.84387  0.47189  0.33542  1.0000
  C   C145      1.0  0.33087  0.96828  0.34453  1.0000
  C   C146      1.0  0.32822  0.01817  0.34498  1.0000
  C   C147      1.0  0.30511  0.04069  0.33615  1.0000
  C   C148      1.0  0.28393  0.01105  0.33861  1.0000
  C   C149      1.0  0.28575  0.96052  0.34386  1.0000
  C   C150      1.0  0.30952  0.94023  0.34082  1.0000
  H   H67       1.0  0.26695  0.02650  0.33649  1.0000
  H   H68       1.0  0.31149  0.90402  0.33989  1.0000
  H   H69       1.0  0.34375  0.03860  0.34856  1.0000
  C   C151      1.0  0.67825  0.04267  0.34405  1.0000
  C   C152      1.0  0.68084  0.99277  0.34436  1.0000
  C   C153      1.0  0.70393  0.97018  0.33515  1.0000
  C   C154      1.0  0.72514  0.99972  0.33730  1.0000
  C   C155      1.0  0.72337  0.05024  0.34275  1.0000
  C   C156      1.0  0.69962  0.07064  0.34026  1.0000
  H   H70       1.0  0.74210  0.98422  0.33472  1.0000
  H   H71       1.0  0.69771  0.10686  0.33929  1.0000
  H   H72       1.0  0.66529  0.97239  0.34791  1.0000
  N   N25       1.0  0.49637  0.54080  0.39287  1.0000
  C   C157      1.0  0.48375  0.49927  0.39423  1.0000
  H   H73       1.0  0.46874  0.49605  0.43497  1.0000
  C   C158      1.0  0.99240  0.04830  0.35015  1.0000
  C   C159      1.0  0.01614  0.96045  0.33278  1.0000
  N   N26       1.0  0.02152  0.99076  0.40108  1.0000
  C   C160      1.0  0.01078  0.03405  0.41288  1.0000
  C   C161      1.0  0.01738  0.06052  0.48766  1.0000
  O   O25       1.0  0.03832  0.05734  0.51702  1.0000
  O   O26       1.0  0.00078  0.07341  0.53893  1.0000
  H   H74       1.0  0.00321  0.08814  0.59091  1.0000
  C   C162      1.0  0.37131  0.31959  0.35718  1.0000
  C   C163      1.0  0.42109  0.34839  0.35030  1.0000
  N   N27       1.0  0.41334  0.31042  0.39936  1.0000
  C   C164      1.0  0.38978  0.29488  0.40620  1.0000
  C   C165      1.0  0.38515  0.25769  0.46526  1.0000
  O   O27       1.0  0.39969  0.22462  0.46724  1.0000
  O   O28       1.0  0.37325  0.26350  0.53521  1.0000
  H   H75       1.0  0.36359  0.28812  0.54644  1.0000
  C   C166      1.0  0.63793  0.69147  0.35616  1.0000
  C   C167      1.0  0.58812  0.66278  0.35074  1.0000
  N   N28       1.0  0.59596  0.70095  0.39901  1.0000
  C   C168      1.0  0.61954  0.71647  0.40507  1.0000
  C   C169      1.0  0.62419  0.75395  0.46347  1.0000
  O   O29       1.0  0.60989  0.78740  0.46443  1.0000
  O   O30       1.0  0.63629  0.74838  0.53308  1.0000
  H   H76       1.0  0.64584  0.72364  0.54464  1.0000
  N   N29       1.0  0.12974  0.85890  0.38025  1.0000
  C   C170      1.0  0.10610  0.87453  0.38364  1.0000
  H   H77       1.0  0.10190  0.90337  0.42252  1.0000
  N   N30       1.0  0.87900  0.15130  0.37615  1.0000
  C   C171      1.0  0.90256  0.13535  0.38045  1.0000
  H   H78       1.0  0.90650  0.10642  0.41943  1.0000
  N   N31       1.0  0.53846  0.24149  0.39129  1.0000
  C   C172      1.0  0.52469  0.28145  0.39965  1.0000
  H   H79       1.0  0.52658  0.30228  0.45562  1.0000
  N   N32       1.0  0.47082  0.76849  0.40181  1.0000
  C   C173      1.0  0.48461  0.72846  0.40837  1.0000
  H   H80       1.0  0.48290  0.70721  0.46387  1.0000
  C   C174      1.0  0.97265  0.71015  0.35817  1.0000
  C   C175      1.0  0.00289  0.78957  0.34077  1.0000
  N   N33       1.0  0.00475  0.75997  0.41240  1.0000
  C   C176      1.0  0.99034  0.72125  0.42564  1.0000
  C   C177      1.0  0.99447  0.69398  0.50239  1.0000
  O   O31       1.0  0.01531  0.69044  0.53196  1.0000
  O   O32       1.0  0.97793  0.68242  0.55489  1.0000
  H   H81       1.0  0.96207  0.68683  0.54530  1.0000
  C   C178      1.0  0.03692  0.29795  0.35781  1.0000
  C   C179      1.0  0.00625  0.21899  0.34480  1.0000
  N   N34       1.0  0.00467  0.24948  0.41521  1.0000
  C   C180      1.0  0.01932  0.28808  0.42617  1.0000
  C   C181      1.0  0.01555  0.31675  0.50129  1.0000
  O   O33       1.0  0.99484  0.32089  0.53183  1.0000
  O   O34       1.0  0.03223  0.32741  0.55390  1.0000
  H   H82       1.0  0.04804  0.32240  0.54419  1.0000
  N   N35       1.0  0.29100  0.11882  0.38446  1.0000
  C   C182      1.0  0.29193  0.16733  0.38877  1.0000
  H   H83       1.0  0.28177  0.18464  0.43637  1.0000
  N   N36       1.0  0.71825  0.89202  0.38224  1.0000
  C   C183      1.0  0.71745  0.84349  0.38603  1.0000
  H   H84       1.0  0.72769  0.82616  0.43340  1.0000
  C   C184      1.0  0.20413  0.59175  0.36280  1.0000
  C   C185      1.0  0.19994  0.69245  0.35598  1.0000
  N   N37       1.0  0.18664  0.66524  0.41368  1.0000
  C   C186      1.0  0.18808  0.61707  0.42166  1.0000
  C   C187      1.0  0.17378  0.59575  0.48775  1.0000
  O   O35       1.0  0.15320  0.61123  0.50217  1.0000
  O   O36       1.0  0.18283  0.57264  0.55025  1.0000
  H   H85       1.0  0.19821  0.56260  0.55252  1.0000
  C   C188      1.0  0.80476  0.41873  0.35892  1.0000
  C   C189      1.0  0.80910  0.31810  0.35178  1.0000
  N   N38       1.0  0.82237  0.34530  0.40958  1.0000
  C   C190      1.0  0.82085  0.39344  0.41766  1.0000
  C   C191      1.0  0.83518  0.41480  0.48373  1.0000
  O   O37       1.0  0.85588  0.39971  0.49708  1.0000
  O   O38       1.0  0.82615  0.43815  0.54595  1.0000
  H   H86       1.0  0.81073  0.44795  0.54844  1.0000
  N   N39       1.0  0.26320  0.43488  0.39720  1.0000
  C   C192      1.0  0.28255  0.40435  0.40352  1.0000
  H   H87       1.0  0.29589  0.41082  0.45024  1.0000
  N   N40       1.0  0.74603  0.57589  0.39410  1.0000
  C   C193      1.0  0.72674  0.60652  0.40095  1.0000
  H   H88       1.0  0.71347  0.60006  0.44793  1.0000
  C   C194      1.0  0.26495  0.92908  0.35013  1.0000
  C   C195      1.0  0.22598  0.86257  0.33948  1.0000
  N   N41       1.0  0.24487  0.85757  0.39829  1.0000
  C   C196      1.0  0.26401  0.88830  0.40732  1.0000
  C   C197      1.0  0.28079  0.87872  0.47538  1.0000
  O   O39       1.0  0.28710  0.83755  0.48808  1.0000
  O   O40       1.0  0.28393  0.90603  0.53959  1.0000
  H   H89       1.0  0.27849  0.93567  0.54241  1.0000
  C   C198      1.0  0.74421  0.08156  0.34848  1.0000
  C   C199      1.0  0.78309  0.14809  0.33632  1.0000
  N   N42       1.0  0.76443  0.15298  0.39614  1.0000
  C   C200      1.0  0.74535  0.12220  0.40595  1.0000
  C   C201      1.0  0.72876  0.13161  0.47472  1.0000
  O   O41       1.0  0.72273  0.17279  0.48906  1.0000
  O   O42       1.0  0.72586  0.10422  0.53896  1.0000
  H   H90       1.0  0.73118  0.07449  0.54114  1.0000
  N   N43       1.0  0.12211  0.39659  0.38879  1.0000
  C   C202      1.0  0.14579  0.41112  0.39649  1.0000
  H   H91       1.0  0.15630  0.39842  0.44814  1.0000
  N   N44       1.0  0.88695  0.61334  0.38481  1.0000
  C   C203      1.0  0.86313  0.59956  0.39058  1.0000
  H   H92       1.0  0.85235  0.61305  0.44076  1.0000
  C   C204      1.0  0.40273  0.91394  0.36499  1.0000
  C   C205      1.0  0.35447  0.94734  0.35122  1.0000
  N   N45       1.0  0.37002  0.96345  0.41561  1.0000
  C   C206      1.0  0.39345  0.94824  0.42682  1.0000
  C   C207      1.0  0.40673  0.96695  0.49848  1.0000
  O   O43       1.0  0.40379  0.00865  0.51905  1.0000
  O   O44       1.0  0.41546  0.94163  0.55851  1.0000
  H   H93       1.0  0.41671  0.91026  0.55617  1.0000
  C   C208      1.0  0.60630  0.09707  0.35975  1.0000
  C   C209      1.0  0.65465  0.06373  0.34971  1.0000
  N   N46       1.0  0.63875  0.04763  0.41297  1.0000
  C   C210      1.0  0.61525  0.06285  0.42238  1.0000
  C   C211      1.0  0.60153  0.04417  0.49297  1.0000
  O   O45       1.0  0.60429  0.00240  0.51335  1.0000
  O   O46       1.0  0.59241  0.06960  0.55205  1.0000
  H   H94       1.0  0.59123  0.10098  0.54952  1.0000
  C   C212      1.0  0.98781  0.54041  0.34862  1.0000
  C   C213      1.0  0.02148  0.46673  0.33440  1.0000
  N   N47       1.0  0.02406  0.50124  0.39740  1.0000
  C   C214      1.0  0.00830  0.53815  0.40771  1.0000
  C   C215      1.0  0.01237  0.56921  0.47885  1.0000
  O   O47       1.0  0.03344  0.58090  0.49610  1.0000
  O   O48       1.0  0.99795  0.57239  0.54281  1.0000
  H   H95       1.0  0.98267  0.56171  0.54289  1.0000
  N   N48       1.0  0.52409  0.00720  0.39965  1.0000
  C   C216      1.0  0.50835  0.97046  0.40952  1.0000
  H   H96       1.0  0.51135  0.94587  0.45900  1.0000
