data_image0
_chemical_formula_structural       C3NC3NC5NC4NC35H25C21H18C16H16CNCHNHCNCHNHC2NC2HNHCNCHNHCNCHNHC2NC2HNHC18H17C3NC3NC2NC5NC34H24C3NC3NC5NC5NC36H26C4HC6HOHOHC4HC6HOHOHC3HC5HOHOHC4HC6HOHOHC4HC6HOHOHC3HC5HOHOH
_chemical_formula_sum              "C276 N24 H162 O12"
_cell_length_a       66.978
_cell_length_b       66.978
_cell_length_c       14.9796
_cell_angle_alpha    89.8016
_cell_angle_beta     90.1984
_cell_angle_gamma    120

_space_group_name_H-M_alt    "P 1"
_space_group_IT_number       1

loop_
  _space_group_symop_operation_xyz
  'x, y, z'

loop_
  _atom_site_type_symbol
  _atom_site_label
  _atom_site_symmetry_multiplicity
  _atom_site_fract_x
  _atom_site_fract_y
  _atom_site_fract_z
  _atom_site_occupancy
  C   C1        1.0  0.04311  0.62833  0.32540  1.0000
  C   C2        1.0  0.01930  0.61643  0.32456  1.0000
  C   C3        1.0  0.01176  0.59286  0.32787  1.0000
  N   N1        1.0  0.03120  0.59135  0.33024  1.0000
  C   C4        1.0  0.05064  0.61230  0.32906  1.0000
  C   C5        1.0  0.07411  0.61789  0.33121  1.0000
  C   C6        1.0  0.08171  0.60154  0.33196  1.0000
  N   N2        1.0  0.06868  0.57831  0.32950  1.0000
  C   C7        1.0  0.08171  0.56810  0.33075  1.0000
  C   C8        1.0  0.10461  0.58595  0.33409  1.0000
  C   C9        1.0  0.10461  0.60655  0.33501  1.0000
  C   C10       1.0  0.07410  0.54415  0.32884  1.0000
  C   C11       1.0  0.05062  0.52628  0.32775  1.0000
  N   N3        1.0  0.03119  0.52778  0.33020  1.0000
  C   C12       1.0  0.01174  0.50684  0.32908  1.0000
  C   C13       1.0  0.01927  0.49080  0.32533  1.0000
  C   C14       1.0  0.04307  0.50271  0.32439  1.0000
  C   C15       1.0  0.98827  0.50124  0.33135  1.0000
  N   N4        1.0  0.99370  0.54082  0.32970  1.0000
  C   C16       1.0  0.98068  0.55103  0.33096  1.0000
  C   C17       1.0  0.95778  0.53317  0.33424  1.0000
  C   C18       1.0  0.95778  0.51257  0.33518  1.0000
  C   C19       1.0  0.98829  0.57498  0.32902  1.0000
  C   C20       1.0  0.97100  0.58144  0.32773  1.0000
  C   C21       1.0  0.96098  0.58259  0.24622  1.0000
  C   C22       1.0  0.94297  0.58765  0.24537  1.0000
  C   C23       1.0  0.93452  0.59176  0.32570  1.0000
  C   C24       1.0  0.91546  0.59573  0.32516  1.0000
  C   C25       1.0  0.87628  0.58482  0.27599  1.0000
  C   C26       1.0  0.89550  0.58163  0.27402  1.0000
  C   C27       1.0  0.97101  0.47750  0.33333  1.0000
  C   C28       1.0  0.96018  0.46576  0.25383  1.0000
  C   C29       1.0  0.94237  0.44260  0.25661  1.0000
  C   C30       1.0  0.93483  0.43056  0.33870  1.0000
  C   C31       1.0  0.91599  0.40740  0.34179  1.0000
  C   C32       1.0  0.91401  0.39062  0.27965  1.0000
  C   C33       1.0  0.89502  0.36804  0.28134  1.0000
  C   C34       1.0  0.87733  0.36136  0.34545  1.0000
  C   C35       1.0  0.09137  0.53768  0.32759  1.0000
  C   C36       1.0  0.12754  0.52693  0.32561  1.0000
  C   C37       1.0  0.11920  0.53137  0.24531  1.0000
  C   C38       1.0  0.10134  0.53664  0.24613  1.0000
  C   C39       1.0  0.14639  0.52262  0.32507  1.0000
  C   C40       1.0  0.16642  0.53664  0.27431  1.0000
  C   C41       1.0  0.18540  0.53306  0.27616  1.0000
  C   C42       1.0  0.18509  0.51530  0.32868  1.0000
  C   C43       1.0  0.09139  0.64163  0.33311  1.0000
  C   C44       1.0  0.10228  0.65337  0.25367  1.0000
  C   C45       1.0  0.12024  0.67646  0.25646  1.0000
  C   C46       1.0  0.12788  0.68843  0.33853  1.0000
  C   C47       1.0  0.14694  0.71147  0.34169  1.0000
  C   C48       1.0  0.18610  0.75720  0.34528  1.0000
  C   C49       1.0  0.16844  0.75082  0.28088  1.0000
  C   C50       1.0  0.14921  0.72839  0.27922  1.0000
  H   H1        1.0  0.16932  0.76256  0.23483  1.0000
  H   H2        1.0  0.13672  0.72458  0.23207  1.0000
  H   H3        1.0  0.12826  0.68419  0.19792  1.0000
  H   H4        1.0  0.09754  0.64503  0.19352  1.0000
  H   H5        1.0  0.05307  0.64590  0.32349  1.0000
  H   H6        1.0  0.00935  0.62404  0.32219  1.0000
  H   H7        1.0  0.03119  0.57704  0.33450  1.0000
  H   H8        1.0  0.03120  0.54209  0.33454  1.0000
  H   H9        1.0  0.11911  0.62246  0.33752  1.0000
  H   H10       1.0  0.11910  0.58452  0.33599  1.0000
  H   H11       1.0  0.09586  0.54001  0.18702  1.0000
  H   H12       1.0  0.12607  0.53079  0.18510  1.0000
  H   H13       1.0  0.05302  0.49509  0.32196  1.0000
  H   H14       1.0  0.00931  0.47324  0.32345  1.0000
  H   H15       1.0  0.94328  0.49666  0.33762  1.0000
  H   H16       1.0  0.96488  0.47413  0.19364  1.0000
  H   H17       1.0  0.93441  0.43486  0.19800  1.0000
  H   H18       1.0  0.89436  0.35641  0.23557  1.0000
  H   H19       1.0  0.92655  0.39464  0.23274  1.0000
  H   H20       1.0  0.89440  0.56828  0.23710  1.0000
  H   H21       1.0  0.86193  0.57365  0.24044  1.0000
  H   H22       1.0  0.93605  0.58828  0.18514  1.0000
  H   H23       1.0  0.96649  0.57940  0.18710  1.0000
  H   H24       1.0  0.16773  0.55016  0.23763  1.0000
  H   H25       1.0  0.19982  0.54417  0.24088  1.0000
  C   C51       1.0  0.52112  0.59846  0.33358  1.0000
  C   C52       1.0  0.50326  0.60350  0.33677  1.0000
  C   C53       1.0  0.48266  0.58290  0.33774  1.0000
  C   C54       1.0  0.50662  0.46338  0.24907  1.0000
  C   C55       1.0  0.50156  0.44031  0.24817  1.0000
  C   C56       1.0  0.50439  0.37640  0.27858  1.0000
  C   C57       1.0  0.50759  0.39881  0.27672  1.0000
  C   C58       1.0  0.62343  0.57941  0.25640  1.0000
  C   C59       1.0  0.64659  0.58475  0.25897  1.0000
  C   C60       1.0  0.69858  0.60837  0.28166  1.0000
  C   C61       1.0  0.72116  0.61196  0.28307  1.0000
  C   C62       1.0  0.72787  0.60081  0.34689  1.0000
  C   C63       1.0  0.55785  0.67280  0.24814  1.0000
  C   C64       1.0  0.55258  0.64967  0.24898  1.0000
  C   C65       1.0  0.55258  0.71471  0.27713  1.0000
  C   C66       1.0  0.55615  0.73726  0.27898  1.0000
  C   C67       1.0  0.43587  0.53384  0.25624  1.0000
  C   C68       1.0  0.41278  0.52871  0.25885  1.0000
  C   C69       1.0  0.33199  0.51368  0.34673  1.0000
  C   C70       1.0  0.33840  0.50246  0.28263  1.0000
  C   C71       1.0  0.36084  0.50567  0.28127  1.0000
  H   H26       1.0  0.32669  0.49165  0.23654  1.0000
  H   H27       1.0  0.36468  0.49704  0.23430  1.0000
  H   H28       1.0  0.40506  0.52903  0.20020  1.0000
  H   H29       1.0  0.44422  0.53749  0.19614  1.0000
  H   H30       1.0  0.46676  0.58149  0.34020  1.0000
  H   H31       1.0  0.54920  0.64091  0.18988  1.0000
  H   H32       1.0  0.55843  0.68035  0.18792  1.0000
  H   H33       1.0  0.59413  0.64278  0.32517  1.0000
  H   H34       1.0  0.61504  0.57588  0.19625  1.0000
  H   H35       1.0  0.65432  0.58468  0.20026  1.0000
  H   H36       1.0  0.73276  0.62302  0.23727  1.0000
  H   H37       1.0  0.69454  0.61698  0.23496  1.0000
  H   H38       1.0  0.52094  0.41112  0.23981  1.0000
  H   H39       1.0  0.51558  0.37329  0.24312  1.0000
  H   H40       1.0  0.50093  0.43285  0.18791  1.0000
  H   H41       1.0  0.50983  0.47218  0.18997  1.0000
  H   H42       1.0  0.53906  0.70255  0.24042  1.0000
  H   H43       1.0  0.54505  0.74063  0.24365  1.0000
  C   C72       1.0  0.62573  0.12814  0.25024  1.0000
  C   C73       1.0  0.64880  0.14615  0.24889  1.0000
  C   C74       1.0  0.71275  0.21287  0.27797  1.0000
  C   C75       1.0  0.69034  0.19366  0.27654  1.0000
  C   C76       1.0  0.50980  0.12898  0.25886  1.0000
  C   C77       1.0  0.50444  0.14678  0.26148  1.0000
  C   C78       1.0  0.48083  0.17512  0.28428  1.0000
  C   C79       1.0  0.47724  0.19412  0.28570  1.0000
  C   C80       1.0  0.41653  0.97010  0.24879  1.0000
  C   C81       1.0  0.43967  0.98796  0.25014  1.0000
  C   C82       1.0  0.37457  0.92287  0.27673  1.0000
  C   C83       1.0  0.35202  0.90389  0.27808  1.0000
  C   C84       1.0  0.55539  0.98699  0.25857  1.0000
  C   C85       1.0  0.56055  0.96905  0.26120  1.0000
  C   C86       1.0  0.58677  0.92087  0.28514  1.0000
  C   C87       1.0  0.58356  0.94010  0.28375  1.0000
  H   H44       1.0  0.59759  0.92004  0.23911  1.0000
  H   H45       1.0  0.59220  0.95263  0.23678  1.0000
  H   H46       1.0  0.56020  0.96107  0.20259  1.0000
  H   H47       1.0  0.55175  0.99178  0.19844  1.0000
  H   H48       1.0  0.44851  0.99349  0.19122  1.0000
  H   H49       1.0  0.40907  0.96330  0.18840  1.0000
  H   H50       1.0  0.51334  0.12424  0.19869  1.0000
  H   H51       1.0  0.50454  0.15471  0.20281  1.0000
  H   H52       1.0  0.46619  0.19474  0.23988  1.0000
  H   H53       1.0  0.47222  0.16255  0.23753  1.0000
  H   H54       1.0  0.67798  0.19473  0.23983  1.0000
  H   H55       1.0  0.71583  0.22720  0.24232  1.0000
  H   H56       1.0  0.65619  0.15302  0.18848  1.0000
  H   H57       1.0  0.61686  0.12259  0.19130  1.0000
  H   H58       1.0  0.38679  0.92157  0.24038  1.0000
  H   H59       1.0  0.34871  0.88949  0.24278  1.0000
  C   C88       1.0  0.29932  0.51316  0.26670  1.0000
  N   N5        1.0  0.27881  0.51257  0.26852  1.0000
  C   C89       1.0  0.21787  0.51425  0.25670  1.0000
  H   H60       1.0  0.30756  0.51597  0.20676  1.0000
  N   N6        1.0  0.23743  0.51307  0.26341  1.0000
  H   H61       1.0  0.21288  0.51655  0.19477  1.0000
  C   C90       1.0  0.57609  0.87112  0.26926  1.0000
  N   N7        1.0  0.57666  0.85118  0.27113  1.0000
  C   C91       1.0  0.57497  0.78857  0.25942  1.0000
  H   H62       1.0  0.57325  0.87662  0.20931  1.0000
  N   N8        1.0  0.57616  0.80931  0.26609  1.0000
  H   H63       1.0  0.57267  0.78137  0.19750  1.0000
  C   C92       1.0  0.20610  0.77963  0.34550  1.0000
  C   C93       1.0  0.21822  0.78993  0.26588  1.0000
  N   N9        1.0  0.23814  0.81045  0.26811  1.0000
  C   C94       1.0  0.30074  0.87142  0.25758  1.0000
  C   C95       1.0  0.31199  0.88435  0.33468  1.0000
  H   H64       1.0  0.21277  0.78174  0.20581  1.0000
  N   N10       1.0  0.28000  0.85186  0.26385  1.0000
  H   H65       1.0  0.30802  0.87646  0.19580  1.0000
  C   C96       1.0  0.76084  0.60220  0.26693  1.0000
  N   N11       1.0  0.78156  0.60322  0.26877  1.0000
  C   C97       1.0  0.84316  0.60288  0.25694  1.0000
  H   H66       1.0  0.75256  0.59941  0.20690  1.0000
  N   N12       1.0  0.82338  0.60363  0.26367  1.0000
  H   H67       1.0  0.84823  0.60087  0.19495  1.0000
  C   C98       1.0  0.48703  0.24358  0.26957  1.0000
  N   N13       1.0  0.48602  0.26329  0.27142  1.0000
  C   C99       1.0  0.48636  0.32525  0.25959  1.0000
  H   H68       1.0  0.48982  0.23819  0.20955  1.0000
  N   N14       1.0  0.48561  0.30471  0.26632  1.0000
  H   H69       1.0  0.48837  0.33243  0.19760  1.0000
  C   C100      1.0  0.85759  0.33876  0.34577  1.0000
  C   C101      1.0  0.84556  0.32831  0.26610  1.0000
  N   N15       1.0  0.82586  0.30760  0.26837  1.0000
  C   C102      1.0  0.76388  0.24598  0.25785  1.0000
  C   C103      1.0  0.75280  0.23294  0.33500  1.0000
  H   H70       1.0  0.85085  0.33656  0.20597  1.0000
  N   N16       1.0  0.78443  0.26577  0.26414  1.0000
  H   H71       1.0  0.75661  0.24086  0.19602  1.0000
  C   C104      1.0  0.98067  0.51759  0.33216  1.0000
  C   C105      1.0  0.94496  0.59093  0.40700  1.0000
  C   C106      1.0  0.96290  0.58575  0.40815  1.0000
  C   C107      1.0  0.91557  0.61332  0.37758  1.0000
  C   C108      1.0  0.89636  0.61655  0.37934  1.0000
  C   C109      1.0  0.87628  0.60229  0.32892  1.0000
  C   C110      1.0  0.94604  0.44245  0.41789  1.0000
  C   C111      1.0  0.96388  0.46559  0.41540  1.0000
  C   C112      1.0  0.87935  0.37810  0.40786  1.0000
  C   C113      1.0  0.89830  0.40066  0.40603  1.0000
  C   C114      1.0  0.09939  0.53307  0.40798  1.0000
  C   C115      1.0  0.11718  0.52769  0.40685  1.0000
  C   C116      1.0  0.16495  0.50113  0.37876  1.0000
  C   C117      1.0  0.14597  0.50474  0.37707  1.0000
  C   C118      1.0  0.09859  0.65347  0.41513  1.0000
  C   C119      1.0  0.11658  0.67654  0.41764  1.0000
  C   C120      1.0  0.16460  0.71791  0.40622  1.0000
  C   C121      1.0  0.18378  0.74034  0.40806  1.0000
  H   H72       1.0  0.19646  0.74398  0.45417  1.0000
  H   H73       1.0  0.16405  0.70609  0.45111  1.0000
  H   H74       1.0  0.12138  0.68460  0.47829  1.0000
  H   H75       1.0  0.09103  0.64528  0.47368  1.0000
  H   H76       1.0  0.09260  0.53400  0.46795  1.0000
  H   H77       1.0  0.12305  0.52512  0.46653  1.0000
  H   H78       1.0  0.94329  0.53459  0.33613  1.0000
  H   H79       1.0  0.97143  0.47377  0.47397  1.0000
  H   H80       1.0  0.94133  0.43435  0.47855  1.0000
  H   H81       1.0  0.89863  0.41237  0.45066  1.0000
  H   H82       1.0  0.86664  0.37423  0.45378  1.0000
  H   H83       1.0  0.96969  0.58470  0.46815  1.0000
  H   H84       1.0  0.93901  0.59323  0.46670  1.0000
  H   H85       1.0  0.89725  0.62958  0.41776  1.0000
  H   H86       1.0  0.92976  0.62410  0.41476  1.0000
  H   H87       1.0  0.13172  0.49401  0.41393  1.0000
  H   H88       1.0  0.16384  0.48790  0.41684  1.0000
  C   C122      1.0  0.46088  0.49963  0.32835  1.0000
  C   C123      1.0  0.47278  0.48773  0.32753  1.0000
  C   C124      1.0  0.49636  0.50375  0.33084  1.0000
  N   N17       1.0  0.49786  0.52469  0.33320  1.0000
  C   C125      1.0  0.47692  0.52319  0.33199  1.0000
  C   C126      1.0  0.47133  0.54107  0.33407  1.0000
  C   C127      1.0  0.48768  0.56502  0.33481  1.0000
  N   N18       1.0  0.51091  0.57522  0.33239  1.0000
  C   C128      1.0  0.54507  0.61480  0.33173  1.0000
  C   C129      1.0  0.56294  0.60919  0.33077  1.0000
  N   N19       1.0  0.56144  0.58825  0.33317  1.0000
  C   C130      1.0  0.58238  0.58975  0.33207  1.0000
  C   C131      1.0  0.59842  0.61332  0.32848  1.0000
  C   C132      1.0  0.58651  0.62522  0.32756  1.0000
  C   C133      1.0  0.58798  0.57188  0.33420  1.0000
  C   C134      1.0  0.57163  0.54792  0.33498  1.0000
  N   N20       1.0  0.54840  0.53772  0.33263  1.0000
  C   C135      1.0  0.53818  0.51449  0.33383  1.0000
  C   C136      1.0  0.55605  0.50945  0.33700  1.0000
  C   C137      1.0  0.57665  0.53004  0.33789  1.0000
  C   C138      1.0  0.51423  0.49815  0.33195  1.0000
  C   C139      1.0  0.50777  0.47441  0.33061  1.0000
  C   C140      1.0  0.49744  0.42761  0.32847  1.0000
  C   C141      1.0  0.49830  0.43875  0.40979  1.0000
  C   C142      1.0  0.50345  0.46186  0.41099  1.0000
  C   C143      1.0  0.49348  0.40458  0.32787  1.0000
  C   C144      1.0  0.47589  0.38701  0.38026  1.0000
  C   C145      1.0  0.47267  0.36457  0.38200  1.0000
  C   C146      1.0  0.48693  0.35884  0.33155  1.0000
  C   C147      1.0  0.61172  0.57835  0.33601  1.0000
  C   C148      1.0  0.65866  0.58911  0.34097  1.0000
  C   C149      1.0  0.64679  0.58826  0.42030  1.0000
  C   C150      1.0  0.62365  0.58296  0.41800  1.0000
  C   C151      1.0  0.68183  0.59343  0.34383  1.0000
  C   C152      1.0  0.71117  0.58598  0.40935  1.0000
  C   C153      1.0  0.68860  0.58234  0.40778  1.0000
  C   C154      1.0  0.55154  0.63854  0.33046  1.0000
  C   C155      1.0  0.55616  0.65105  0.41083  1.0000
  C   C156      1.0  0.56153  0.67422  0.40968  1.0000
  C   C157      1.0  0.56230  0.68547  0.32843  1.0000
  C   C158      1.0  0.56660  0.70862  0.32789  1.0000
  C   C159      1.0  0.57392  0.75464  0.33148  1.0000
  C   C160      1.0  0.58808  0.74859  0.38155  1.0000
  C   C161      1.0  0.58448  0.72601  0.37987  1.0000
  C   C162      1.0  0.44758  0.53460  0.33581  1.0000
  C   C163      1.0  0.43571  0.52987  0.41776  1.0000
  C   C164      1.0  0.40078  0.52426  0.34082  1.0000
  C   C165      1.0  0.41264  0.52478  0.42007  1.0000
  C   C166      1.0  0.37773  0.52027  0.34375  1.0000
  C   C167      1.0  0.37125  0.53140  0.40802  1.0000
  C   C168      1.0  0.34882  0.52816  0.40955  1.0000
  H   H89       1.0  0.34515  0.53715  0.45546  1.0000
  H   H90       1.0  0.38304  0.54264  0.45291  1.0000
  H   H91       1.0  0.40457  0.52146  0.48067  1.0000
  H   H92       1.0  0.44389  0.53046  0.47639  1.0000
  H   H93       1.0  0.44332  0.49202  0.32641  1.0000
  H   H94       1.0  0.46517  0.47017  0.32515  1.0000
  H   H95       1.0  0.51218  0.53899  0.33744  1.0000
  H   H96       1.0  0.54713  0.57394  0.33713  1.0000
  H   H97       1.0  0.50470  0.61942  0.33870  1.0000
  H   H98       1.0  0.55521  0.64324  0.47081  1.0000
  H   H99       1.0  0.56410  0.68257  0.46936  1.0000
  H   H100      1.0  0.61598  0.62093  0.32665  1.0000
  H   H101      1.0  0.55462  0.49353  0.33881  1.0000
  H   H102      1.0  0.59256  0.53145  0.34024  1.0000
  H   H103      1.0  0.61549  0.58220  0.47666  1.0000
  H   H104      1.0  0.65492  0.59153  0.48091  1.0000
  H   H105      1.0  0.67693  0.57091  0.45250  1.0000
  H   H106      1.0  0.71507  0.57704  0.45511  1.0000
  H   H107      1.0  0.50451  0.46960  0.47102  1.0000
  H   H108      1.0  0.49597  0.43039  0.46946  1.0000
  H   H109      1.0  0.45964  0.35237  0.42042  1.0000
  H   H110      1.0  0.46511  0.39036  0.41746  1.0000
  H   H111      1.0  0.59522  0.72243  0.41671  1.0000
  H   H112      1.0  0.60133  0.76066  0.41959  1.0000
  C   C169      1.0  0.58959  0.04611  0.33056  1.0000
  C   C170      1.0  0.60149  0.06991  0.32958  1.0000
  C   C171      1.0  0.58547  0.07746  0.33283  1.0000
  N   N21       1.0  0.56453  0.05802  0.33536  1.0000
  C   C172      1.0  0.56603  0.03857  0.33420  1.0000
  C   C173      1.0  0.54816  0.01510  0.33631  1.0000
  C   C174      1.0  0.52420  0.00750  0.33700  1.0000
  N   N22       1.0  0.51400  0.02053  0.33454  1.0000
  C   C175      1.0  0.49076  0.00751  0.33561  1.0000
  C   C176      1.0  0.48572  0.98460  0.33878  1.0000
  C   C177      1.0  0.50632  0.98460  0.33987  1.0000
  C   C178      1.0  0.47443  0.01512  0.33362  1.0000
  C   C179      1.0  0.48003  0.03859  0.33271  1.0000
  N   N23       1.0  0.50097  0.05803  0.33538  1.0000
  C   C180      1.0  0.49947  0.07747  0.33429  1.0000
  C   C181      1.0  0.47590  0.06994  0.33046  1.0000
  C   C182      1.0  0.46400  0.04614  0.32934  1.0000
  C   C183      1.0  0.51734  0.10094  0.33658  1.0000
  C   C184      1.0  0.54129  0.10854  0.33726  1.0000
  N   N24       1.0  0.55149  0.09551  0.33478  1.0000
  C   C185      1.0  0.57473  0.10854  0.33581  1.0000
  C   C186      1.0  0.57977  0.13144  0.33900  1.0000
  C   C187      1.0  0.55917  0.13144  0.34009  1.0000
  C   C188      1.0  0.59107  0.10093  0.33376  1.0000
  C   C189      1.0  0.61480  0.11821  0.33201  1.0000
  C   C190      1.0  0.66159  0.15468  0.32894  1.0000
  C   C191      1.0  0.65055  0.14434  0.41049  1.0000
  C   C192      1.0  0.62744  0.12639  0.41216  1.0000
  C   C193      1.0  0.68462  0.17374  0.32786  1.0000
  C   C194      1.0  0.70226  0.17368  0.37997  1.0000
  C   C195      1.0  0.72471  0.19289  0.38120  1.0000
  C   C196      1.0  0.73037  0.21291  0.33057  1.0000
  C   C197      1.0  0.51086  0.11820  0.33844  1.0000
  C   C198      1.0  0.50009  0.15437  0.34352  1.0000
  C   C199      1.0  0.50094  0.14322  0.42281  1.0000
  C   C200      1.0  0.50624  0.12538  0.42046  1.0000
  C   C201      1.0  0.49576  0.17320  0.34643  1.0000
  C   C202      1.0  0.48840  0.21188  0.34954  1.0000
  C   C203      1.0  0.50321  0.20989  0.41206  1.0000
  C   C204      1.0  0.50683  0.19095  0.41045  1.0000
  C   C205      1.0  0.45068  0.99785  0.33187  1.0000
  C   C206      1.0  0.43807  0.98976  0.41198  1.0000
  C   C207      1.0  0.41490  0.97196  0.41031  1.0000
  C   C208      1.0  0.40375  0.96168  0.32880  1.0000
  C   C209      1.0  0.38060  0.94285  0.32771  1.0000
  C   C210      1.0  0.33457  0.90415  0.33028  1.0000
  C   C211      1.0  0.34055  0.92424  0.38054  1.0000
  C   C212      1.0  0.36314  0.94322  0.37936  1.0000
  C   C213      1.0  0.55462  0.99782  0.33810  1.0000
  C   C214      1.0  0.55934  0.99056  0.42008  1.0000
  C   C215      1.0  0.56496  0.96134  0.34322  1.0000
  C   C216      1.0  0.56443  0.97257  0.42244  1.0000
  C   C217      1.0  0.56895  0.94229  0.34619  1.0000
  C   C218      1.0  0.55782  0.92457  0.41047  1.0000
  C   C219      1.0  0.56105  0.90538  0.41199  1.0000
  C   C220      1.0  0.57554  0.90313  0.34923  1.0000
  H   H113      1.0  0.55207  0.89266  0.45795  1.0000
  H   H114      1.0  0.54658  0.92507  0.45532  1.0000
  H   H115      1.0  0.56774  0.96773  0.48306  1.0000
  H   H116      1.0  0.55875  0.99806  0.47870  1.0000
  H   H117      1.0  0.59720  0.03615  0.32865  1.0000
  H   H118      1.0  0.61905  0.07986  0.32712  1.0000
  H   H119      1.0  0.55023  0.05802  0.33935  1.0000
  H   H120      1.0  0.51527  0.05802  0.33974  1.0000
  H   H121      1.0  0.50773  0.97010  0.34231  1.0000
  H   H122      1.0  0.46980  0.97011  0.34060  1.0000
  H   H123      1.0  0.44579  0.99647  0.47212  1.0000
  H   H124      1.0  0.40646  0.96604  0.46980  1.0000
  H   H125      1.0  0.44644  0.03620  0.32673  1.0000
  H   H126      1.0  0.46829  0.07990  0.32850  1.0000
  H   H127      1.0  0.59569  0.14593  0.34067  1.0000
  H   H128      1.0  0.55776  0.14593  0.34247  1.0000
  H   H129      1.0  0.50700  0.11788  0.47909  1.0000
  H   H130      1.0  0.49767  0.14797  0.48344  1.0000
  H   H131      1.0  0.51829  0.19065  0.45509  1.0000
  H   H132      1.0  0.51217  0.22266  0.45774  1.0000
  H   H133      1.0  0.61978  0.11966  0.47233  1.0000
  H   H134      1.0  0.65899  0.15033  0.47001  1.0000
  H   H135      1.0  0.73696  0.19203  0.41939  1.0000
  H   H136      1.0  0.69895  0.15952  0.41726  1.0000
  H   H137      1.0  0.36668  0.95745  0.41636  1.0000
  H   H138      1.0  0.32844  0.92532  0.41839  1.0000
  C   C221      1.0  0.30956  0.51125  0.34656  1.0000
  C   C222      1.0  0.26670  0.50982  0.34464  1.0000
  C   C223      1.0  0.27566  0.50729  0.42732  1.0000
  C   C224      1.0  0.29713  0.50801  0.42668  1.0000
  H   H139      1.0  0.30396  0.50633  0.48557  1.0000
  C   C225      1.0  0.24576  0.51007  0.34205  1.0000
  C   C226      1.0  0.20488  0.51250  0.33356  1.0000
  C   C227      1.0  0.21298  0.50894  0.41619  1.0000
  C   C228      1.0  0.23346  0.50776  0.42206  1.0000
  C   C229      1.0  0.24226  0.50493  0.50434  1.0000
  C   C230      1.0  0.26323  0.50468  0.50694  1.0000
  H   H140      1.0  0.20433  0.50814  0.47350  1.0000
  O   O1        1.0  0.23060  0.50207  0.58205  1.0000
  H   H141      1.0  0.23660  0.51758  0.60732  1.0000
  O   O2        1.0  0.27103  0.50164  0.58710  1.0000
  H   H142      1.0  0.28061  0.51713  0.61244  1.0000
  C   C231      1.0  0.57798  0.88313  0.34912  1.0000
  C   C232      1.0  0.57941  0.84171  0.34726  1.0000
  C   C233      1.0  0.58193  0.85307  0.42993  1.0000
  C   C234      1.0  0.58121  0.87383  0.42926  1.0000
  H   H143      1.0  0.58288  0.88224  0.48814  1.0000
  C   C235      1.0  0.57916  0.82053  0.34472  1.0000
  C   C236      1.0  0.57672  0.77722  0.33629  1.0000
  C   C237      1.0  0.58029  0.78877  0.41891  1.0000
  C   C238      1.0  0.58146  0.81041  0.42475  1.0000
  C   C239      1.0  0.58429  0.82191  0.50700  1.0000
  C   C240      1.0  0.58454  0.84313  0.50957  1.0000
  H   H144      1.0  0.58107  0.78082  0.47622  1.0000
  O   O3        1.0  0.58715  0.81300  0.58473  1.0000
  H   H145      1.0  0.57164  0.80346  0.61000  1.0000
  O   O4        1.0  0.58757  0.85385  0.58971  1.0000
  H   H146      1.0  0.57208  0.84790  0.61505  1.0000
  C   C241      1.0  0.24750  0.82251  0.34441  1.0000
  C   C242      1.0  0.23604  0.81350  0.42686  1.0000
  C   C243      1.0  0.21529  0.79201  0.42581  1.0000
  H   H147      1.0  0.20680  0.78514  0.48453  1.0000
  C   C244      1.0  0.26868  0.84346  0.34227  1.0000
  C   C245      1.0  0.30033  0.87620  0.41706  1.0000
  C   C246      1.0  0.27869  0.85570  0.42248  1.0000
  C   C247      1.0  0.26708  0.84685  0.50452  1.0000
  C   C248      1.0  0.24587  0.82587  0.50669  1.0000
  H   H148      1.0  0.30820  0.88480  0.47454  1.0000
  O   O5        1.0  0.27589  0.85845  0.58242  1.0000
  H   H149      1.0  0.28540  0.85244  0.60788  1.0000
  O   O6        1.0  0.23505  0.81801  0.58663  1.0000
  H   H150      1.0  0.24097  0.80841  0.61208  1.0000
  C   C249      1.0  0.75047  0.60367  0.34683  1.0000
  C   C250      1.0  0.79375  0.60601  0.34496  1.0000
  C   C251      1.0  0.78467  0.60810  0.42769  1.0000
  C   C252      1.0  0.76298  0.60693  0.42703  1.0000
  H   H151      1.0  0.75606  0.60829  0.48595  1.0000
  C   C253      1.0  0.81492  0.60622  0.34237  1.0000
  C   C254      1.0  0.85627  0.60468  0.33384  1.0000
  C   C255      1.0  0.84804  0.60785  0.41654  1.0000
  C   C256      1.0  0.82732  0.60855  0.42244  1.0000
  C   C257      1.0  0.81839  0.61095  0.50477  1.0000
  C   C258      1.0  0.79720  0.61074  0.50737  1.0000
  H   H152      1.0  0.85676  0.60863  0.47388  1.0000
  O   O7        1.0  0.83014  0.61384  0.58254  1.0000
  H   H153      1.0  0.82440  0.59830  0.60748  1.0000
  O   O8        1.0  0.78927  0.61338  0.58760  1.0000
  H   H154      1.0  0.77992  0.59778  0.61257  1.0000
  C   C259      1.0  0.48556  0.23163  0.34946  1.0000
  C   C260      1.0  0.48323  0.27257  0.34761  1.0000
  C   C261      1.0  0.48113  0.26127  0.43033  1.0000
  C   C262      1.0  0.48229  0.24075  0.42967  1.0000
  H   H155      1.0  0.48092  0.23237  0.48859  1.0000
  C   C263      1.0  0.48302  0.29353  0.34502  1.0000
  C   C264      1.0  0.48455  0.33643  0.33649  1.0000
  C   C265      1.0  0.48141  0.32492  0.41919  1.0000
  C   C266      1.0  0.48068  0.30348  0.42509  1.0000
  C   C267      1.0  0.47828  0.29202  0.50741  1.0000
  C   C268      1.0  0.47848  0.27103  0.51002  1.0000
  H   H156      1.0  0.48059  0.33275  0.47652  1.0000
  O   O9        1.0  0.47539  0.30076  0.58519  1.0000
  H   H157      1.0  0.49092  0.31051  0.61014  1.0000
  O   O10       1.0  0.47584  0.26034  0.59023  1.0000
  H   H158      1.0  0.49143  0.26654  0.61523  1.0000
  C   C269      1.0  0.81667  0.29546  0.34475  1.0000
  C   C270      1.0  0.82808  0.30461  0.42725  1.0000
  C   C271      1.0  0.84858  0.32630  0.42616  1.0000
  H   H159      1.0  0.85703  0.33328  0.48492  1.0000
  C   C272      1.0  0.79571  0.27429  0.34262  1.0000
  C   C273      1.0  0.76442  0.24124  0.41746  1.0000
  C   C274      1.0  0.78587  0.26196  0.42290  1.0000
  C   C275      1.0  0.79743  0.27095  0.50500  1.0000
  C   C276      1.0  0.81842  0.29214  0.50715  1.0000
  H   H160      1.0  0.75666  0.23256  0.47497  1.0000
  O   O11       1.0  0.78879  0.25927  0.58296  1.0000
  H   H161      1.0  0.77907  0.26502  0.60806  1.0000
  O   O12       1.0  0.82921  0.30014  0.58716  1.0000
  H   H162      1.0  0.82304  0.30951  0.61222  1.0000
