data_image0
_chemical_formula_structural       C4NH2NH2C4NH2NH2C2NH2NH2C2NH2NH2C2NH2NH2C2NH2NH2C4NH2NH2C4NH2NH2C4NH2NH2C4NH2NH2C2NH2NH2C2NH2NH2C2NH2NH2C2NH2NH2C4NH2NH2C4NH2NH2C4NH2NH2C4NH2NH2CNCNCNCNCNCNCNCNCNCNCNCNCNCNCNCNCNCNCNCNCNCNCNCNCNCNCNCNCNCNCNCNCNCNCNCNC2NH2NH2C2NH2NH2C4NH2NH2C4NH2NH2C4NH2NH2C4NH2NH2C2NH2NH2C2NH2NH2C2NH2NH2C2NH2NH2C4NH2NH2C4NH2NH2C4NH2NH2C4NH2NH2C2NH2NH2C2NH2NH2C2NH2NH2C2NH2NH2
_chemical_formula_sum              "C144 N108 H144"
_cell_length_a       34.0111
_cell_length_b       33.8513
_cell_length_c       14.7919
_cell_angle_alpha    90
_cell_angle_beta     90
_cell_angle_gamma    90.2771

_space_group_name_H-M_alt    "P 1"
_space_group_IT_number       1

loop_
  _space_group_symop_operation_xyz
  'x, y, z'

loop_
  _atom_site_type_symbol
  _atom_site_label
  _atom_site_symmetry_multiplicity
  _atom_site_fract_x
  _atom_site_fract_y
  _atom_site_fract_z
  _atom_site_occupancy
  C   C1        1.0  0.03441  0.47606  0.34710  1.0000
  C   C2        1.0  0.01866  0.48992  0.26331  1.0000
  C   C3        1.0  0.99069  0.52154  0.26331  1.0000
  C   C4        1.0  0.97494  0.53538  0.34712  1.0000
  N   N1        1.0  0.97935  0.53914  0.18393  1.0000
  H   H1        1.0  0.99315  0.53485  0.12766  1.0000
  H   H2        1.0  0.96089  0.56087  0.18224  1.0000
  N   N2        1.0  0.02996  0.47229  0.18396  1.0000
  H   H3        1.0  0.04855  0.45067  0.18205  1.0000
  H   H4        1.0  0.01631  0.47669  0.12752  1.0000
  C   C5        1.0  0.53431  0.03334  0.34705  1.0000
  C   C6        1.0  0.52012  0.01783  0.26317  1.0000
  C   C7        1.0  0.48893  0.98913  0.26321  1.0000
  C   C8        1.0  0.47471  0.97371  0.34715  1.0000
  N   N3        1.0  0.47171  0.97714  0.18376  1.0000
  H   H5        1.0  0.47611  0.99068  0.12711  1.0000
  H   H6        1.0  0.45032  0.95811  0.18197  1.0000
  N   N4        1.0  0.53740  0.02973  0.18373  1.0000
  H   H7        1.0  0.55875  0.04881  0.18176  1.0000
  H   H8        1.0  0.53292  0.01627  0.12701  1.0000
  C   C9        1.0  0.06777  0.31664  0.26389  1.0000
  C   C10       1.0  0.05838  0.27528  0.26420  1.0000
  N   N5        1.0  0.07469  0.33642  0.18433  1.0000
  H   H9        1.0  0.08095  0.36439  0.18224  1.0000
  H   H10       1.0  0.07779  0.32310  0.12706  1.0000
  N   N6        1.0  0.05133  0.25525  0.18502  1.0000
  H   H11       1.0  0.04472  0.22736  0.18352  1.0000
  H   H12       1.0  0.04813  0.26841  0.12759  1.0000
  C   C11       1.0  0.94099  0.69457  0.26412  1.0000
  C   C12       1.0  0.95066  0.73587  0.26440  1.0000
  N   N7        1.0  0.93389  0.67485  0.18457  1.0000
  H   H13       1.0  0.92738  0.64694  0.18248  1.0000
  H   H14       1.0  0.93081  0.68821  0.12734  1.0000
  N   N8        1.0  0.95783  0.75582  0.18518  1.0000
  H   H15       1.0  0.96471  0.78366  0.18374  1.0000
  H   H16       1.0  0.96105  0.74261  0.12782  1.0000
  C   C13       1.0  0.69320  0.06807  0.26373  1.0000
  C   C14       1.0  0.73429  0.05861  0.26409  1.0000
  N   N9        1.0  0.67366  0.07514  0.18413  1.0000
  H   H17       1.0  0.64591  0.08152  0.18196  1.0000
  H   H18       1.0  0.68704  0.07842  0.12701  1.0000
  N   N10       1.0  0.75413  0.05146  0.18492  1.0000
  H   H19       1.0  0.78178  0.04464  0.18353  1.0000
  H   H20       1.0  0.74088  0.04795  0.12771  1.0000
  C   C15       1.0  0.31601  0.94176  0.26384  1.0000
  C   C16       1.0  0.27469  0.95013  0.26421  1.0000
  N   N11       1.0  0.33679  0.94017  0.18431  1.0000
  H   H21       1.0  0.36483  0.93515  0.18247  1.0000
  H   H22       1.0  0.32600  0.94886  0.12732  1.0000
  N   N12       1.0  0.25368  0.95185  0.18501  1.0000
  H   H23       1.0  0.22572  0.95734  0.18343  1.0000
  H   H24       1.0  0.26429  0.94343  0.12763  1.0000
  C   C17       1.0  0.45461  0.75309  0.34570  1.0000
  C   C18       1.0  0.44951  0.77339  0.26173  1.0000
  C   C19       1.0  0.44133  0.81494  0.26194  1.0000
  C   C20       1.0  0.43613  0.83508  0.34608  1.0000
  N   N13       1.0  0.43970  0.83601  0.18268  1.0000
  H   H25       1.0  0.44819  0.82530  0.12545  1.0000
  H   H26       1.0  0.43475  0.86420  0.18126  1.0000
  N   N14       1.0  0.45114  0.75248  0.18224  1.0000
  H   H27       1.0  0.45641  0.72436  0.18038  1.0000
  H   H28       1.0  0.44275  0.76330  0.12503  1.0000
  C   C21       1.0  0.55478  0.25439  0.34606  1.0000
  C   C22       1.0  0.55817  0.23372  0.26213  1.0000
  C   C23       1.0  0.56859  0.19273  0.26231  1.0000
  C   C24       1.0  0.57210  0.17220  0.34641  1.0000
  N   N15       1.0  0.57642  0.17324  0.18293  1.0000
  H   H29       1.0  0.57989  0.18680  0.12600  1.0000
  H   H30       1.0  0.58353  0.14553  0.18104  1.0000
  N   N16       1.0  0.55035  0.25313  0.18264  1.0000
  H   H31       1.0  0.54298  0.28076  0.18063  1.0000
  H   H32       1.0  0.54687  0.23947  0.12583  1.0000
  C   C25       1.0  0.75469  0.55503  0.34547  1.0000
  C   C26       1.0  0.77503  0.55966  0.26141  1.0000
  C   C27       1.0  0.81646  0.56803  0.26160  1.0000
  C   C28       1.0  0.83665  0.57272  0.34583  1.0000
  N   N17       1.0  0.83746  0.57055  0.18243  1.0000
  H   H33       1.0  0.82663  0.56353  0.12431  1.0000
  H   H34       1.0  0.86553  0.57571  0.18122  1.0000
  N   N18       1.0  0.75417  0.55722  0.18203  1.0000
  H   H35       1.0  0.72618  0.55164  0.18036  1.0000
  H   H36       1.0  0.76511  0.56417  0.12397  1.0000
  C   C29       1.0  0.25495  0.45300  0.34566  1.0000
  C   C30       1.0  0.23430  0.44990  0.26171  1.0000
  C   C31       1.0  0.19300  0.44103  0.26190  1.0000
  C   C32       1.0  0.17249  0.43781  0.34605  1.0000
  N   N19       1.0  0.17312  0.43416  0.18257  1.0000
  H   H37       1.0  0.18634  0.43044  0.12544  1.0000
  H   H38       1.0  0.14523  0.42812  0.18086  1.0000
  N   N20       1.0  0.25409  0.45676  0.18226  1.0000
  H   H39       1.0  0.28194  0.46299  0.18033  1.0000
  H   H40       1.0  0.24082  0.46035  0.12513  1.0000
  C   C33       1.0  0.11166  0.10173  0.26482  1.0000
  C   C34       1.0  0.13479  0.06646  0.26480  1.0000
  N   N21       1.0  0.10208  0.12076  0.18591  1.0000
  H   H41       1.0  0.08770  0.14544  0.18528  1.0000
  H   H42       1.0  0.11321  0.11377  0.12811  1.0000
  N   N22       1.0  0.14499  0.04809  0.18545  1.0000
  H   H43       1.0  0.16160  0.02488  0.18378  1.0000
  H   H44       1.0  0.13463  0.05566  0.12727  1.0000
  C   C35       1.0  0.89819  0.90966  0.26510  1.0000
  C   C36       1.0  0.87532  0.94508  0.26503  1.0000
  N   N23       1.0  0.90759  0.89055  0.18618  1.0000
  H   H45       1.0  0.92179  0.86576  0.18552  1.0000
  H   H46       1.0  0.89628  0.89751  0.12850  1.0000
  N   N24       1.0  0.86552  0.96362  0.18562  1.0000
  H   H47       1.0  0.84919  0.98702  0.18380  1.0000
  H   H48       1.0  0.87630  0.95621  0.12770  1.0000
  C   C37       1.0  0.90846  0.11168  0.26513  1.0000
  C   C38       1.0  0.94334  0.13555  0.26526  1.0000
  N   N25       1.0  0.89224  0.09837  0.18566  1.0000
  H   H49       1.0  0.86799  0.08319  0.18372  1.0000
  H   H50       1.0  0.90519  0.10095  0.12784  1.0000
  N   N26       1.0  0.95928  0.14976  0.18634  1.0000
  H   H51       1.0  0.98198  0.16722  0.18581  1.0000
  H   H52       1.0  0.94572  0.14820  0.12909  1.0000
  C   C39       1.0  0.10138  0.89899  0.26497  1.0000
  C   C40       1.0  0.06557  0.87652  0.26490  1.0000
  N   N27       1.0  0.12062  0.90825  0.18610  1.0000
  H   H53       1.0  0.14572  0.92198  0.18569  1.0000
  H   H54       1.0  0.11339  0.89708  0.12839  1.0000
  N   N28       1.0  0.04699  0.86669  0.18552  1.0000
  H   H55       1.0  0.02333  0.85059  0.18379  1.0000
  H   H56       1.0  0.05485  0.87697  0.12737  1.0000
  C   C41       1.0  0.36462  0.54619  0.34539  1.0000
  C   C42       1.0  0.37564  0.56369  0.26104  1.0000
  C   C43       1.0  0.39880  0.59916  0.26110  1.0000
  C   C44       1.0  0.41138  0.61553  0.34543  1.0000
  N   N29       1.0  0.40909  0.61792  0.18214  1.0000
  H   H57       1.0  0.39922  0.61014  0.12366  1.0000
  H   H58       1.0  0.42349  0.64272  0.18157  1.0000
  N   N30       1.0  0.36472  0.54549  0.18183  1.0000
  H   H59       1.0  0.34787  0.52230  0.18050  1.0000
  H   H60       1.0  0.37376  0.55382  0.12303  1.0000
  C   C45       1.0  0.64536  0.46116  0.34529  1.0000
  C   C46       1.0  0.63416  0.44375  0.26097  1.0000
  C   C47       1.0  0.61119  0.40816  0.26096  1.0000
  C   C48       1.0  0.59849  0.39179  0.34511  1.0000
  N   N31       1.0  0.60168  0.38903  0.18202  1.0000
  H   H61       1.0  0.61279  0.39618  0.12422  1.0000
  H   H62       1.0  0.58746  0.36411  0.18140  1.0000
  N   N32       1.0  0.64416  0.46234  0.18163  1.0000
  H   H63       1.0  0.66064  0.48580  0.17994  1.0000
  H   H64       1.0  0.63368  0.45471  0.12353  1.0000
  C   C49       1.0  0.54839  0.64432  0.34518  1.0000
  C   C50       1.0  0.56631  0.63418  0.26101  1.0000
  C   C51       1.0  0.60108  0.61046  0.26098  1.0000
  C   C52       1.0  0.61804  0.59872  0.34524  1.0000
  N   N33       1.0  0.61746  0.59737  0.18162  1.0000
  H   H65       1.0  0.60496  0.60036  0.12346  1.0000
  H   H66       1.0  0.64160  0.58223  0.17995  1.0000
  N   N34       1.0  0.55011  0.64798  0.18211  1.0000
  H   H67       1.0  0.52748  0.66531  0.18153  1.0000
  H   H68       1.0  0.56294  0.64561  0.12418  1.0000
  C   C53       1.0  0.46130  0.36335  0.34538  1.0000
  C   C54       1.0  0.44332  0.37333  0.26114  1.0000
  C   C55       1.0  0.40830  0.39670  0.26110  1.0000
  C   C56       1.0  0.39133  0.40836  0.34541  1.0000
  N   N35       1.0  0.39146  0.40931  0.18183  1.0000
  H   H69       1.0  0.40347  0.40585  0.12331  1.0000
  H   H70       1.0  0.36702  0.42396  0.18037  1.0000
  N   N36       1.0  0.45981  0.35991  0.18221  1.0000
  H   H71       1.0  0.48268  0.34289  0.18157  1.0000
  H   H72       1.0  0.44735  0.36263  0.12398  1.0000
  C   C57       1.0  0.13154  0.42778  0.34627  1.0000
  N   N37       1.0  0.10309  0.45603  0.34626  1.0000
  C   C58       1.0  0.06415  0.44614  0.34703  1.0000
  N   N38       1.0  0.05401  0.40711  0.34773  1.0000
  C   C59       1.0  0.08189  0.37832  0.34755  1.0000
  N   N39       1.0  0.12046  0.38911  0.34688  1.0000
  C   C60       1.0  0.87753  0.58309  0.34632  1.0000
  N   N40       1.0  0.90617  0.55503  0.34620  1.0000
  C   C61       1.0  0.94505  0.56515  0.34706  1.0000
  N   N41       1.0  0.95494  0.60424  0.34788  1.0000
  C   C62       1.0  0.92689  0.63286  0.34776  1.0000
  N   N42       1.0  0.88837  0.62183  0.34704  1.0000
  C   C63       1.0  0.58243  0.13125  0.34621  1.0000
  N   N43       1.0  0.55437  0.10236  0.34612  1.0000
  C   C64       1.0  0.56425  0.06337  0.34652  1.0000
  N   N44       1.0  0.60311  0.05358  0.34714  1.0000
  C   C65       1.0  0.63176  0.08188  0.34719  1.0000
  N   N45       1.0  0.62095  0.12054  0.34684  1.0000
  C   C66       1.0  0.42597  0.87609  0.34629  1.0000
  N   N46       1.0  0.45423  0.90480  0.34629  1.0000
  C   C67       1.0  0.44461  0.94386  0.34675  1.0000
  N   N47       1.0  0.40583  0.95389  0.34733  1.0000
  C   C68       1.0  0.37697  0.92579  0.34727  1.0000
  N   N48       1.0  0.38751  0.88705  0.34677  1.0000
  C   C69       1.0  0.00064  0.16059  0.34905  1.0000
  N   N49       1.0  0.00877  0.20002  0.34895  1.0000
  C   C70       1.0  0.04666  0.21336  0.34879  1.0000
  N   N50       1.0  0.07651  0.18660  0.34879  1.0000
  C   C71       1.0  0.06878  0.14707  0.34900  1.0000
  N   N51       1.0  0.03084  0.13458  0.34912  1.0000
  C   C72       1.0  0.00889  0.85037  0.34921  1.0000
  N   N52       1.0  0.00065  0.81097  0.34900  1.0000
  C   C73       1.0  0.96270  0.79775  0.34892  1.0000
  N   N53       1.0  0.93294  0.82461  0.34901  1.0000
  C   C74       1.0  0.94080  0.86411  0.34921  1.0000
  N   N54       1.0  0.97877  0.87648  0.34929  1.0000
  C   C75       1.0  0.84843  0.00135  0.34928  1.0000
  N   N55       1.0  0.80917  0.00916  0.34890  1.0000
  C   C76       1.0  0.79592  0.04714  0.34871  1.0000
  N   N56       1.0  0.82260  0.07737  0.34883  1.0000
  C   C77       1.0  0.86193  0.06992  0.34925  1.0000
  N   N57       1.0  0.87430  0.03192  0.34946  1.0000
  C   C78       1.0  0.16134  0.00998  0.34913  1.0000
  N   N58       1.0  0.20055  0.00186  0.34890  1.0000
  C   C79       1.0  0.21350  0.96376  0.34882  1.0000
  N   N59       1.0  0.18656  0.93377  0.34894  1.0000
  C   C80       1.0  0.14729  0.94151  0.34916  1.0000
  N   N60       1.0  0.13522  0.97960  0.34923  1.0000
  C   C81       1.0  0.50939  0.65952  0.34527  1.0000
  N   N61       1.0  0.50112  0.69888  0.34539  1.0000
  C   C82       1.0  0.46317  0.71173  0.34550  1.0000
  N   N62       1.0  0.43343  0.68454  0.34548  1.0000
  C   C83       1.0  0.44130  0.64513  0.34527  1.0000
  N   N63       1.0  0.47927  0.63314  0.34521  1.0000
  C   C84       1.0  0.50031  0.34815  0.34533  1.0000
  N   N64       1.0  0.50845  0.30878  0.34557  1.0000
  C   C85       1.0  0.54635  0.29578  0.34539  1.0000
  N   N65       1.0  0.57619  0.32284  0.34522  1.0000
  C   C86       1.0  0.56847  0.36229  0.34507  1.0000
  N   N66       1.0  0.53053  0.37443  0.34512  1.0000
  C   C87       1.0  0.66091  0.50032  0.34541  1.0000
  N   N67       1.0  0.70016  0.50854  0.34552  1.0000
  C   C88       1.0  0.71339  0.54665  0.34552  1.0000
  N   N68       1.0  0.68666  0.57661  0.34539  1.0000
  C   C89       1.0  0.64734  0.56876  0.34531  1.0000
  N   N69       1.0  0.63501  0.53062  0.34530  1.0000
  C   C90       1.0  0.34902  0.50706  0.34539  1.0000
  N   N70       1.0  0.30975  0.49906  0.34542  1.0000
  C   C91       1.0  0.29630  0.46104  0.34546  1.0000
  N   N71       1.0  0.32282  0.43092  0.34547  1.0000
  C   C92       1.0  0.36220  0.43853  0.34541  1.0000
  N   N72       1.0  0.37476  0.47660  0.34539  1.0000
  C   C93       1.0  0.98891  0.51974  0.43095  1.0000
  C   C94       1.0  0.02048  0.49173  0.43095  1.0000
  N   N73       1.0  0.97147  0.53129  0.51029  1.0000
  H   H73       1.0  0.94996  0.54998  0.51213  1.0000
  H   H74       1.0  0.97607  0.51789  0.56700  1.0000
  N   N74       1.0  0.03792  0.48018  0.51029  1.0000
  H   H75       1.0  0.05954  0.46161  0.51196  1.0000
  H   H76       1.0  0.03345  0.49376  0.56682  1.0000
  C   C95       1.0  0.48953  0.98849  0.43129  1.0000
  C   C96       1.0  0.51951  0.01859  0.43124  1.0000
  N   N75       1.0  0.47404  0.97397  0.51049  1.0000
  H   H77       1.0  0.45379  0.95371  0.51180  1.0000
  H   H78       1.0  0.48093  0.98392  0.56944  1.0000
  N   N76       1.0  0.53504  0.03312  0.51038  1.0000
  H   H79       1.0  0.55532  0.05335  0.51162  1.0000
  H   H80       1.0  0.52816  0.02320  0.56936  1.0000
  C   C97       1.0  0.05496  0.25481  0.34845  1.0000
  C   C98       1.0  0.05836  0.27553  0.43237  1.0000
  C   C99       1.0  0.06789  0.31686  0.43207  1.0000
  C   C100      1.0  0.07143  0.33733  0.34783  1.0000
  N   N77       1.0  0.07507  0.33675  0.51136  1.0000
  H   H81       1.0  0.07854  0.32343  0.56852  1.0000
  H   H82       1.0  0.08159  0.36466  0.51298  1.0000
  N   N78       1.0  0.05118  0.25582  0.51190  1.0000
  H   H83       1.0  0.04439  0.22797  0.51378  1.0000
  H   H84       1.0  0.04774  0.26926  0.56894  1.0000
  C   C101      1.0  0.95420  0.75633  0.34863  1.0000
  C   C102      1.0  0.95061  0.73566  0.43258  1.0000
  C   C103      1.0  0.94095  0.69435  0.43229  1.0000
  C   C104      1.0  0.93725  0.67389  0.34807  1.0000
  N   N79       1.0  0.93381  0.67442  0.51155  1.0000
  H   H85       1.0  0.93073  0.68762  0.56897  1.0000
  H   H86       1.0  0.92726  0.64652  0.51319  1.0000
  N   N80       1.0  0.95775  0.75542  0.51205  1.0000
  H   H87       1.0  0.96456  0.78326  0.51397  1.0000
  H   H88       1.0  0.96085  0.74208  0.56929  1.0000
  C   C105      1.0  0.75465  0.05523  0.34833  1.0000
  C   C106      1.0  0.73401  0.05865  0.43220  1.0000
  C   C107      1.0  0.69292  0.06810  0.43184  1.0000
  C   C108      1.0  0.67257  0.07168  0.34760  1.0000
  N   N81       1.0  0.67310  0.07515  0.51109  1.0000
  H   H89       1.0  0.68631  0.07854  0.56837  1.0000
  H   H90       1.0  0.64536  0.08164  0.51263  1.0000
  N   N82       1.0  0.75359  0.05154  0.51171  1.0000
  H   H91       1.0  0.78127  0.04483  0.51370  1.0000
  H   H92       1.0  0.74023  0.04823  0.56885  1.0000
  C   C109      1.0  0.25469  0.95526  0.34845  1.0000
  C   C110      1.0  0.27497  0.95006  0.43232  1.0000
  C   C111      1.0  0.31629  0.94166  0.43193  1.0000
  C   C112      1.0  0.33624  0.93637  0.34769  1.0000
  N   N83       1.0  0.33732  0.93991  0.51108  1.0000
  H   H93       1.0  0.32675  0.94845  0.56837  1.0000
  H   H94       1.0  0.36536  0.93484  0.51234  1.0000
  N   N84       1.0  0.25422  0.95178  0.51189  1.0000
  H   H95       1.0  0.22628  0.95730  0.51397  1.0000
  H   H96       1.0  0.26503  0.94338  0.56909  1.0000
  C   C113      1.0  0.44131  0.81479  0.43005  1.0000
  C   C114      1.0  0.44952  0.77324  0.42987  1.0000
  N   N85       1.0  0.43967  0.83573  0.50948  1.0000
  H   H97       1.0  0.43461  0.86389  0.51127  1.0000
  H   H98       1.0  0.44795  0.82489  0.56675  1.0000
  N   N86       1.0  0.45119  0.75218  0.50913  1.0000
  H   H99       1.0  0.45654  0.72407  0.51080  1.0000
  H   H100      1.0  0.44291  0.76291  0.56651  1.0000
  C   C115      1.0  0.56764  0.19259  0.43058  1.0000
  C   C116      1.0  0.55911  0.23413  0.43041  1.0000
  N   N87       1.0  0.57229  0.17194  0.50983  1.0000
  H   H101      1.0  0.57779  0.14386  0.51119  1.0000
  H   H102      1.0  0.57105  0.18382  0.56891  1.0000
  N   N88       1.0  0.55442  0.25493  0.50946  1.0000
  H   H103      1.0  0.54853  0.28293  0.51052  1.0000
  H   H104      1.0  0.55561  0.24315  0.56864  1.0000
  C   C117      1.0  0.81638  0.56757  0.42976  1.0000
  C   C118      1.0  0.77484  0.56005  0.42960  1.0000
  N   N89       1.0  0.83726  0.56862  0.50921  1.0000
  H   H105      1.0  0.86544  0.57309  0.51104  1.0000
  H   H106      1.0  0.82627  0.56007  0.56621  1.0000
  N   N90       1.0  0.75386  0.55896  0.50894  1.0000
  H   H107      1.0  0.72573  0.55426  0.51062  1.0000
  H   H108      1.0  0.76477  0.56766  0.56591  1.0000
  C   C119      1.0  0.19315  0.44105  0.43001  1.0000
  C   C120      1.0  0.23445  0.44990  0.42982  1.0000
  N   N91       1.0  0.17340  0.43424  0.50955  1.0000
  H   H109      1.0  0.14550  0.42826  0.51157  1.0000
  H   H110      1.0  0.18672  0.43054  0.56656  1.0000
  N   N92       1.0  0.25439  0.45675  0.50908  1.0000
  H   H111      1.0  0.28225  0.46296  0.51073  1.0000
  H   H112      1.0  0.24124  0.46034  0.56635  1.0000
  C   C121      1.0  0.14593  0.04906  0.34906  1.0000
  C   C122      1.0  0.13452  0.06633  0.43329  1.0000
  C   C123      1.0  0.11160  0.10172  0.43316  1.0000
  C   C124      1.0  0.09883  0.11787  0.34897  1.0000
  N   N93       1.0  0.10222  0.12085  0.51209  1.0000
  H   H113      1.0  0.11385  0.11407  0.56953  1.0000
  H   H114      1.0  0.08815  0.14571  0.51251  1.0000
  N   N94       1.0  0.14424  0.04779  0.51274  1.0000
  H   H115      1.0  0.16066  0.02445  0.51464  1.0000
  H   H116      1.0  0.13327  0.05511  0.57054  1.0000
  C   C125      1.0  0.86406  0.96238  0.34931  1.0000
  C   C126      1.0  0.87536  0.94510  0.43358  1.0000
  C   C127      1.0  0.89831  0.90972  0.43350  1.0000
  C   C128      1.0  0.91090  0.89345  0.34927  1.0000
  N   N95       1.0  0.90789  0.89070  0.51242  1.0000
  H   H117      1.0  0.89681  0.89774  0.57025  1.0000
  H   H118      1.0  0.92212  0.86592  0.51300  1.0000
  N   N96       1.0  0.86548  0.96362  0.51297  1.0000
  H   H119      1.0  0.84903  0.98694  0.51476  1.0000
  H   H120      1.0  0.87609  0.95614  0.57099  1.0000
  C   C129      1.0  0.96159  0.14520  0.34944  1.0000
  C   C130      1.0  0.94361  0.13507  0.43371  1.0000
  C   C131      1.0  0.90816  0.11200  0.43368  1.0000
  C   C132      1.0  0.89125  0.10012  0.34933  1.0000
  N   N97       1.0  0.89079  0.09982  0.51282  1.0000
  H   H121      1.0  0.90220  0.10402  0.57172  1.0000
  H   H122      1.0  0.86606  0.08542  0.51400  1.0000
  N   N98       1.0  0.96059  0.14806  0.51263  1.0000
  H   H123      1.0  0.98377  0.16487  0.51326  1.0000
  H   H124      1.0  0.94865  0.14467  0.57125  1.0000
  C   C133      1.0  0.04797  0.86568  0.34920  1.0000
  C   C134      1.0  0.06550  0.87665  0.43350  1.0000
  C   C135      1.0  0.10132  0.89909  0.43341  1.0000
  C   C136      1.0  0.11781  0.91150  0.34918  1.0000
  N   N99       1.0  0.12054  0.90838  0.51230  1.0000
  H   H125      1.0  0.11330  0.89724  0.57002  1.0000
  H   H126      1.0  0.14568  0.92205  0.51264  1.0000
  N   N100      1.0  0.04686  0.86695  0.51289  1.0000
  H   H127      1.0  0.02320  0.85085  0.51467  1.0000
  H   H128      1.0  0.05467  0.87736  0.57097  1.0000
  C   C137      1.0  0.39893  0.59906  0.42978  1.0000
  C   C138      1.0  0.37531  0.56387  0.42977  1.0000
  N   N101      1.0  0.41000  0.61737  0.50874  1.0000
  H   H129      1.0  0.42477  0.64196  0.50944  1.0000
  H   H130      1.0  0.40181  0.60864  0.56783  1.0000
  N   N102      1.0  0.36342  0.54614  0.50881  1.0000
  H   H131      1.0  0.34625  0.52318  0.50974  1.0000
  H   H132      1.0  0.37072  0.55546  0.56805  1.0000
  C   C139      1.0  0.61121  0.40807  0.42935  1.0000
  C   C140      1.0  0.63412  0.44370  0.42952  1.0000
  N   N103      1.0  0.60177  0.38883  0.50820  1.0000
  H   H133      1.0  0.58756  0.36391  0.50875  1.0000
  H   H134      1.0  0.61300  0.39590  0.56595  1.0000
  N   N104      1.0  0.64403  0.46224  0.50898  1.0000
  H   H135      1.0  0.66043  0.48576  0.51082  1.0000
  H   H136      1.0  0.63337  0.45464  0.56695  1.0000
  C   C141      1.0  0.60099  0.61037  0.42946  1.0000
  C   C142      1.0  0.56636  0.63431  0.42935  1.0000
  N   N105      1.0  0.61703  0.59699  0.50892  1.0000
  H   H137      1.0  0.64105  0.58167  0.51083  1.0000
  H   H138      1.0  0.60416  0.59966  0.56677  1.0000
  N   N106      1.0  0.55043  0.64840  0.50825  1.0000
  H   H139      1.0  0.52799  0.66598  0.50870  1.0000
  H   H140      1.0  0.56375  0.64654  0.56571  1.0000
  C   C143      1.0  0.40825  0.39661  0.42969  1.0000
  C   C144      1.0  0.44331  0.37329  0.42964  1.0000
  N   N107      1.0  0.39130  0.40908  0.50894  1.0000
  H   H141      1.0  0.36683  0.42368  0.51036  1.0000
  H   H142      1.0  0.40314  0.40541  0.56757  1.0000
  N   N108      1.0  0.45987  0.35992  0.50854  1.0000
  H   H143      1.0  0.48278  0.34295  0.50915  1.0000
  H   H144      1.0  0.44752  0.36276  0.56685  1.0000
