data_image0
_chemical_formula_structural       C2NHCH2C2NHCH4CNC5OCH2CNC5OCH3CHCHNHCNHNHCHCHNHCNHNC3NH4C6N2H6C6N2H6CNHNCNHCNHCNHC3HNHC3HNC3NH3C3HNC3NH3COCH2C3NOCH3C4NOCH3C3NOCH3C3NOCH3C3NH4C6N2H6C6N2H6CNHNCNHCNHCNHC3HNHC3HNC3NH3C3HNC3NH3COCH2C3NOCH3C4NOCH3C3NOCH3C3NOCH3C6N2H5C6N2H6C6N2H6CNHCNHCNHCNHCNHCNHC3HNC3NH3C3HNC3NH3C3HNC3NH3C3NOCH3C3NOCH3C3NOCH3C3NOCH3C3NOCH3C3NOCH3C6N2H5C6N2H6C6N2H6CNHCNHCNHCNHCNHCNHC3HNC3NH3C3HNC3NH3C3HNC3NH3C3NOCH3C3NOCH3C3NOCH3C3NOCH3C3NOCH3C3NOCH3
_chemical_formula_sum              "C264 N96 H216 O24"
_cell_length_a       45.6872
_cell_length_b       45.6871
_cell_length_c       14.9049
_cell_angle_alpha    90
_cell_angle_beta     90
_cell_angle_gamma    120

_space_group_name_H-M_alt    "P 1"
_space_group_IT_number       1

loop_
  _space_group_symop_operation_xyz
  'x, y, z'

loop_
  _atom_site_type_symbol
  _atom_site_label
  _atom_site_symmetry_multiplicity
  _atom_site_fract_x
  _atom_site_fract_y
  _atom_site_fract_z
  _atom_site_occupancy
  C   C1        1.0  0.02298  0.26079  0.32373  1.0000
  C   C2        1.0  0.04621  0.29645  0.31518  1.0000
  N   N1        1.0  0.03876  0.31542  0.25894  1.0000
  H   H1        1.0  0.05450  0.33918  0.24767  1.0000
  C   C3        1.0  0.03872  0.24102  0.34067  1.0000
  H   H2        1.0  0.02497  0.21530  0.34076  1.0000
  H   H3        1.0  0.05747  0.36275  0.55641  1.0000
  C   C4        1.0  0.02298  0.76079  0.32373  1.0000
  C   C5        1.0  0.04621  0.79645  0.31518  1.0000
  N   N2        1.0  0.03877  0.81543  0.25894  1.0000
  H   H4        1.0  0.05450  0.83918  0.24767  1.0000
  C   C6        1.0  0.03872  0.74102  0.34067  1.0000
  H   H5        1.0  0.02497  0.71530  0.34076  1.0000
  H   H6        1.0  0.05747  0.86275  0.55641  1.0000
  H   H7        1.0  0.01980  0.30464  0.21759  1.0000
  H   H8        1.0  0.01980  0.80464  0.21759  1.0000
  C   C7        1.0  0.07894  0.31109  0.35575  1.0000
  N   N3        1.0  0.10329  0.24385  0.26821  1.0000
  C   C8        1.0  0.08928  0.28945  0.39695  1.0000
  C   C9        1.0  0.07175  0.25451  0.37549  1.0000
  C   C10       1.0  0.09123  0.23908  0.35372  1.0000
  C   C11       1.0  0.10768  0.37308  0.38846  1.0000
  C   C12       1.0  0.10481  0.34502  0.33965  1.0000
  O   O1        1.0  0.08045  0.37086  0.43304  1.0000
  C   C13       1.0  0.08007  0.36418  0.52748  1.0000
  H   H9        1.0  0.07901  0.34010  0.53971  1.0000
  H   H10       1.0  0.10209  0.38443  0.56150  1.0000
  C   C14       1.0  0.07894  0.81109  0.35575  1.0000
  N   N4        1.0  0.10329  0.74385  0.26821  1.0000
  C   C15       1.0  0.08928  0.78945  0.39695  1.0000
  C   C16       1.0  0.07175  0.75451  0.37549  1.0000
  C   C17       1.0  0.09123  0.73908  0.35372  1.0000
  C   C18       1.0  0.10768  0.87308  0.38846  1.0000
  C   C19       1.0  0.10481  0.84502  0.33965  1.0000
  O   O2        1.0  0.08045  0.87086  0.43304  1.0000
  C   C20       1.0  0.08007  0.86418  0.52748  1.0000
  H   H11       1.0  0.07901  0.84010  0.53971  1.0000
  H   H12       1.0  0.10209  0.88443  0.56150  1.0000
  H   H13       1.0  0.12668  0.32552  0.47513  1.0000
  C   C21       1.0  0.13179  0.24327  0.24443  1.0000
  H   H14       1.0  0.14066  0.25060  0.18060  1.0000
  C   C22       1.0  0.13443  0.35004  0.29628  1.0000
  H   H15       1.0  0.13486  0.33095  0.26155  1.0000
  N   N5        1.0  0.11637  0.30233  0.45402  1.0000
  H   H16       1.0  0.12093  0.28764  0.49085  1.0000
  C   C23       1.0  0.13945  0.23459  0.39906  1.0000
  N   N6        1.0  0.11038  0.23505  0.41710  1.0000
  H   H17       1.0  0.14666  0.25472  0.57396  1.0000
  N   N7        1.0  0.13865  0.40160  0.39918  1.0000
  H   H18       1.0  0.12668  0.82552  0.47513  1.0000
  C   C24       1.0  0.13179  0.74327  0.24443  1.0000
  H   H19       1.0  0.14066  0.75060  0.18060  1.0000
  C   C25       1.0  0.13443  0.85004  0.29628  1.0000
  H   H20       1.0  0.13486  0.83095  0.26155  1.0000
  N   N8        1.0  0.11637  0.80233  0.45402  1.0000
  H   H21       1.0  0.12093  0.78764  0.49085  1.0000
  C   C26       1.0  0.13945  0.73459  0.39906  1.0000
  N   N9        1.0  0.11037  0.73505  0.41710  1.0000
  H   H22       1.0  0.14666  0.75471  0.57396  1.0000
  N   N10       1.0  0.13865  0.90160  0.39918  1.0000
  C   C27       1.0  0.48650  0.24562  0.32353  1.0000
  C   C28       1.0  0.43041  0.19525  0.35436  1.0000
  C   C29       1.0  0.46327  0.20997  0.31446  1.0000
  N   N11       1.0  0.47090  0.19108  0.25838  1.0000
  H   H23       1.0  0.98984  0.20202  0.21701  1.0000
  H   H24       1.0  0.45502  0.16743  0.24628  1.0000
  H   H25       1.0  0.51980  0.30464  0.21759  1.0000
  H   H26       1.0  0.38240  0.18062  0.47322  1.0000
  C   C30       1.0  0.26512  0.24528  0.30191  1.0000
  C   C31       1.0  0.32076  0.24674  0.30109  1.0000
  C   C32       1.0  0.30105  0.26263  0.28365  1.0000
  C   C33       1.0  0.24417  0.26095  0.30177  1.0000
  C   C34       1.0  0.20826  0.24357  0.28325  1.0000
  C   C35       1.0  0.18852  0.25945  0.30050  1.0000
  N   N12       1.0  0.31660  0.29272  0.23860  1.0000
  N   N13       1.0  0.19278  0.21347  0.23822  1.0000
  H   H27       1.0  0.30335  0.30050  0.20615  1.0000
  H   H28       1.0  0.34015  0.30332  0.22029  1.0000
  H   H29       1.0  0.16928  0.20300  0.21952  1.0000
  H   H30       1.0  0.20610  0.20578  0.20578  1.0000
  H   H31       1.0  0.16347  0.30025  0.33439  1.0000
  H   H32       1.0  0.34576  0.20591  0.33520  1.0000
  C   C36       1.0  0.26152  0.02118  0.34845  1.0000
  C   C37       1.0  0.25228  0.07022  0.36880  1.0000
  C   C38       1.0  0.24180  0.03736  0.33232  1.0000
  C   C39       1.0  0.24816  0.48513  0.34823  1.0000
  C   C40       1.0  0.26787  0.46901  0.33123  1.0000
  C   C41       1.0  0.25751  0.43612  0.36738  1.0000
  N   N14       1.0  0.21421  0.02239  0.27736  1.0000
  N   N15       1.0  0.29534  0.48407  0.27590  1.0000
  H   H33       1.0  0.20990  0.50310  0.24038  1.0000
  H   H34       1.0  0.20054  0.03268  0.26420  1.0000
  H   H35       1.0  0.30890  0.47371  0.26193  1.0000
  H   H36       1.0  0.29949  0.00333  0.23906  1.0000
  H   H37       1.0  0.22847  0.38107  0.47421  1.0000
  H   H38       1.0  0.28171  0.12535  0.47540  1.0000
  C   C42       1.0  0.25523  0.39677  0.25731  1.0000
  N   N16       1.0  0.24830  0.36439  0.25140  1.0000
  H   H39       1.0  0.24247  0.40393  0.21438  1.0000
  N   N17       1.0  0.16417  0.37801  0.31335  1.0000
  C   C43       1.0  0.37729  0.26273  0.24472  1.0000
  N   N18       1.0  0.40578  0.26215  0.26854  1.0000
  H   H40       1.0  0.36813  0.25490  0.18136  1.0000
  C   C44       1.0  0.25425  0.10958  0.25860  1.0000
  N   N19       1.0  0.26083  0.14182  0.25192  1.0000
  H   H41       1.0  0.26665  0.10224  0.21488  1.0000
  C   C45       1.0  0.37508  0.15597  0.29502  1.0000
  N   N20       1.0  0.34540  0.12800  0.31260  1.0000
  H   H42       1.0  0.37449  0.17501  0.26046  1.0000
  C   C46       1.0  0.47078  0.26539  0.34071  1.0000
  C   C47       1.0  0.43765  0.25177  0.37475  1.0000
  C   C48       1.0  0.41993  0.21679  0.39559  1.0000
  H   H43       1.0  0.48450  0.29111  0.34087  1.0000
  N   N21       1.0  0.39269  0.20380  0.45217  1.0000
  H   H44       1.0  0.38837  0.21859  0.48934  1.0000
  C   C49       1.0  0.25030  0.21036  0.32462  1.0000
  C   C50       1.0  0.26782  0.19232  0.31755  1.0000
  C   C51       1.0  0.30382  0.21100  0.31524  1.0000
  H   H45       1.0  0.22529  0.19670  0.34122  1.0000
  N   N22       1.0  0.32146  0.19463  0.33335  1.0000
  C   C52       1.0  0.20544  0.29520  0.31438  1.0000
  C   C53       1.0  0.24145  0.31391  0.31676  1.0000
  C   C54       1.0  0.25896  0.29587  0.32433  1.0000
  N   N23       1.0  0.18778  0.31155  0.33241  1.0000
  H   H46       1.0  0.28395  0.30955  0.34108  1.0000
  H   H47       1.0  0.19874  0.33430  0.35583  1.0000
  H   H48       1.0  0.31048  0.17186  0.35663  1.0000
  C   C55       1.0  0.29614  0.04316  0.37090  1.0000
  C   C56       1.0  0.30889  0.07764  0.38836  1.0000
  C   C57       1.0  0.28544  0.08866  0.40581  1.0000
  H   H49       1.0  0.31289  0.03460  0.37489  1.0000
  N   N24       1.0  0.29676  0.11778  0.45433  1.0000
  C   C58       1.0  0.22443  0.41763  0.40484  1.0000
  C   C59       1.0  0.20089  0.42858  0.38783  1.0000
  C   C60       1.0  0.21357  0.46309  0.37098  1.0000
  N   N25       1.0  0.21331  0.38856  0.45346  1.0000
  H   H50       1.0  0.19680  0.47162  0.37549  1.0000
  H   H51       1.0  0.19134  0.37783  0.48291  1.0000
  H   H52       1.0  0.31880  0.12846  0.48341  1.0000
  C   C61       1.0  0.15261  0.24047  0.31037  1.0000
  O   O3        1.0  0.15753  0.23141  0.46819  1.0000
  C   C62       1.0  0.16826  0.25663  0.53742  1.0000
  H   H53       1.0  0.18338  0.28211  0.51023  1.0000
  H   H54       1.0  0.18388  0.25228  0.58477  1.0000
  C   C63       1.0  0.28490  0.40161  0.39491  1.0000
  C   C64       1.0  0.27091  0.41576  0.33551  1.0000
  C   C65       1.0  0.25924  0.34972  0.31190  1.0000
  N   N26       1.0  0.27792  0.36901  0.38214  1.0000
  O   O4        1.0  0.30064  0.41960  0.47121  1.0000
  C   C66       1.0  0.30065  0.40136  0.54980  1.0000
  H   H55       1.0  0.27494  0.38312  0.57071  1.0000
  H   H56       1.0  0.31287  0.41944  0.60411  1.0000
  H   H57       1.0  0.31485  0.38833  0.53799  1.0000
  C   C67       1.0  0.16739  0.40402  0.36466  1.0000
  C   C68       1.0  0.37006  0.27193  0.39944  1.0000
  C   C69       1.0  0.35668  0.26569  0.31108  1.0000
  C   C70       1.0  0.41826  0.26738  0.35376  1.0000
  N   N27       1.0  0.39920  0.27156  0.41708  1.0000
  O   O5        1.0  0.35205  0.27515  0.46870  1.0000
  C   C71       1.0  0.34142  0.24996  0.53800  1.0000
  H   H58       1.0  0.32623  0.22447  0.51092  1.0000
  H   H59       1.0  0.32591  0.25435  0.58560  1.0000
  H   H60       1.0  0.36308  0.25186  0.57421  1.0000
  C   C72       1.0  0.22518  0.10492  0.39697  1.0000
  C   C73       1.0  0.23899  0.09069  0.33716  1.0000
  C   C74       1.0  0.25004  0.15652  0.31274  1.0000
  N   N28       1.0  0.23186  0.13740  0.38381  1.0000
  O   O6        1.0  0.20971  0.08708  0.47370  1.0000
  C   C75       1.0  0.20988  0.10546  0.55218  1.0000
  H   H61       1.0  0.23563  0.12384  0.57243  1.0000
  H   H62       1.0  0.19790  0.08750  0.60685  1.0000
  H   H63       1.0  0.19553  0.11836  0.54058  1.0000
  C   C76       1.0  0.40198  0.13335  0.38827  1.0000
  C   C77       1.0  0.40477  0.16120  0.33862  1.0000
  C   C78       1.0  0.34232  0.10212  0.36426  1.0000
  N   N29       1.0  0.37108  0.10479  0.39932  1.0000
  O   O7        1.0  0.42926  0.13587  0.43331  1.0000
  C   C79       1.0  0.42953  0.14276  0.52757  1.0000
  H   H64       1.0  0.43041  0.16680  0.53916  1.0000
  H   H65       1.0  0.45217  0.14442  0.55686  1.0000
  H   H66       1.0  0.40755  0.12252  0.56173  1.0000
  C   C80       1.0  0.48650  0.74562  0.32353  1.0000
  C   C81       1.0  0.43041  0.69525  0.35436  1.0000
  C   C82       1.0  0.46327  0.70998  0.31446  1.0000
  N   N30       1.0  0.47091  0.69108  0.25838  1.0000
  H   H67       1.0  0.98984  0.70202  0.21701  1.0000
  H   H68       1.0  0.45502  0.66743  0.24628  1.0000
  H   H69       1.0  0.51980  0.80464  0.21759  1.0000
  H   H70       1.0  0.38240  0.68062  0.47322  1.0000
  C   C83       1.0  0.26512  0.74528  0.30191  1.0000
  C   C84       1.0  0.32076  0.74674  0.30109  1.0000
  C   C85       1.0  0.30105  0.76263  0.28365  1.0000
  C   C86       1.0  0.24417  0.76095  0.30177  1.0000
  C   C87       1.0  0.20826  0.74357  0.28325  1.0000
  C   C88       1.0  0.18853  0.75945  0.30050  1.0000
  N   N31       1.0  0.31660  0.79272  0.23860  1.0000
  N   N32       1.0  0.19278  0.71347  0.23822  1.0000
  H   H71       1.0  0.30335  0.80050  0.20615  1.0000
  H   H72       1.0  0.34015  0.80332  0.22029  1.0000
  H   H73       1.0  0.16928  0.70300  0.21952  1.0000
  H   H74       1.0  0.20610  0.70578  0.20578  1.0000
  H   H75       1.0  0.16347  0.80025  0.33439  1.0000
  H   H76       1.0  0.34576  0.70590  0.33520  1.0000
  C   C89       1.0  0.26152  0.52118  0.34845  1.0000
  C   C90       1.0  0.25228  0.57022  0.36880  1.0000
  C   C91       1.0  0.24180  0.53736  0.33232  1.0000
  C   C92       1.0  0.24816  0.98513  0.34823  1.0000
  C   C93       1.0  0.26787  0.96901  0.33123  1.0000
  C   C94       1.0  0.25751  0.93612  0.36738  1.0000
  N   N33       1.0  0.21421  0.52239  0.27736  1.0000
  N   N34       1.0  0.29534  0.98407  0.27590  1.0000
  H   H77       1.0  0.20990  0.00310  0.24038  1.0000
  H   H78       1.0  0.20054  0.53268  0.26420  1.0000
  H   H79       1.0  0.30890  0.97371  0.26193  1.0000
  H   H80       1.0  0.29949  0.50333  0.23906  1.0000
  H   H81       1.0  0.22847  0.88107  0.47421  1.0000
  H   H82       1.0  0.28171  0.62535  0.47540  1.0000
  C   C95       1.0  0.25523  0.89677  0.25731  1.0000
  N   N35       1.0  0.24830  0.86439  0.25140  1.0000
  H   H83       1.0  0.24247  0.90393  0.21438  1.0000
  N   N36       1.0  0.16417  0.87801  0.31335  1.0000
  C   C96       1.0  0.37728  0.76273  0.24472  1.0000
  N   N37       1.0  0.40578  0.76215  0.26854  1.0000
  H   H84       1.0  0.36813  0.75490  0.18136  1.0000
  C   C97       1.0  0.25425  0.60958  0.25861  1.0000
  N   N38       1.0  0.26083  0.64182  0.25192  1.0000
  H   H85       1.0  0.26665  0.60224  0.21488  1.0000
  C   C98       1.0  0.37508  0.65597  0.29502  1.0000
  N   N39       1.0  0.34540  0.62800  0.31260  1.0000
  H   H86       1.0  0.37449  0.67501  0.26046  1.0000
  C   C99       1.0  0.47077  0.76539  0.34071  1.0000
  C   C100      1.0  0.43765  0.75177  0.37475  1.0000
  C   C101      1.0  0.41993  0.71679  0.39559  1.0000
  H   H87       1.0  0.48450  0.79111  0.34087  1.0000
  N   N40       1.0  0.39269  0.70380  0.45217  1.0000
  H   H88       1.0  0.38838  0.71859  0.48934  1.0000
  C   C102      1.0  0.25030  0.71037  0.32462  1.0000
  C   C103      1.0  0.26782  0.69233  0.31755  1.0000
  C   C104      1.0  0.30382  0.71100  0.31524  1.0000
  H   H89       1.0  0.22529  0.69670  0.34122  1.0000
  N   N41       1.0  0.32146  0.69463  0.33335  1.0000
  C   C105      1.0  0.20544  0.79520  0.31438  1.0000
  C   C106      1.0  0.24145  0.81391  0.31676  1.0000
  C   C107      1.0  0.25896  0.79587  0.32433  1.0000
  N   N42       1.0  0.18778  0.81156  0.33241  1.0000
  H   H90       1.0  0.28395  0.80955  0.34108  1.0000
  H   H91       1.0  0.19874  0.83430  0.35583  1.0000
  H   H92       1.0  0.31048  0.67186  0.35663  1.0000
  C   C108      1.0  0.29614  0.54316  0.37090  1.0000
  C   C109      1.0  0.30889  0.57764  0.38836  1.0000
  C   C110      1.0  0.28544  0.58866  0.40581  1.0000
  H   H93       1.0  0.31289  0.53460  0.37489  1.0000
  N   N43       1.0  0.29676  0.61778  0.45433  1.0000
  C   C111      1.0  0.22443  0.91763  0.40484  1.0000
  C   C112      1.0  0.20089  0.92858  0.38783  1.0000
  C   C113      1.0  0.21357  0.96309  0.37098  1.0000
  N   N44       1.0  0.21331  0.88856  0.45346  1.0000
  H   H94       1.0  0.19680  0.97162  0.37549  1.0000
  H   H95       1.0  0.19134  0.87784  0.48291  1.0000
  H   H96       1.0  0.31880  0.62847  0.48341  1.0000
  C   C114      1.0  0.15261  0.74047  0.31037  1.0000
  O   O8        1.0  0.15753  0.73142  0.46819  1.0000
  C   C115      1.0  0.16827  0.75663  0.53742  1.0000
  H   H97       1.0  0.18338  0.78211  0.51023  1.0000
  H   H98       1.0  0.18388  0.75229  0.58477  1.0000
  C   C116      1.0  0.28490  0.90161  0.39491  1.0000
  C   C117      1.0  0.27091  0.91576  0.33551  1.0000
  C   C118      1.0  0.25924  0.84972  0.31190  1.0000
  N   N45       1.0  0.27792  0.86901  0.38214  1.0000
  O   O9        1.0  0.30064  0.91960  0.47121  1.0000
  C   C119      1.0  0.30065  0.90136  0.54980  1.0000
  H   H99       1.0  0.27494  0.88312  0.57071  1.0000
  H   H100      1.0  0.31287  0.91944  0.60411  1.0000
  H   H101      1.0  0.31485  0.88833  0.53799  1.0000
  C   C120      1.0  0.16738  0.90402  0.36466  1.0000
  C   C121      1.0  0.37006  0.77193  0.39944  1.0000
  C   C122      1.0  0.35668  0.76569  0.31108  1.0000
  C   C123      1.0  0.41826  0.76738  0.35376  1.0000
  N   N46       1.0  0.39920  0.77156  0.41708  1.0000
  O   O10       1.0  0.35205  0.77515  0.46870  1.0000
  C   C124      1.0  0.34142  0.74996  0.53800  1.0000
  H   H102      1.0  0.32623  0.72447  0.51092  1.0000
  H   H103      1.0  0.32591  0.75435  0.58561  1.0000
  H   H104      1.0  0.36308  0.75186  0.57421  1.0000
  C   C125      1.0  0.22518  0.60492  0.39698  1.0000
  C   C126      1.0  0.23899  0.59070  0.33716  1.0000
  C   C127      1.0  0.25004  0.65652  0.31274  1.0000
  N   N47       1.0  0.23186  0.63740  0.38381  1.0000
  O   O11       1.0  0.20971  0.58708  0.47370  1.0000
  C   C128      1.0  0.20988  0.60546  0.55218  1.0000
  H   H105      1.0  0.23563  0.62384  0.57243  1.0000
  H   H106      1.0  0.19791  0.58750  0.60685  1.0000
  H   H107      1.0  0.19553  0.61836  0.54058  1.0000
  C   C129      1.0  0.40198  0.63335  0.38827  1.0000
  C   C130      1.0  0.40477  0.66120  0.33862  1.0000
  C   C131      1.0  0.34232  0.60212  0.36426  1.0000
  N   N48       1.0  0.37108  0.60479  0.39932  1.0000
  O   O12       1.0  0.42926  0.63587  0.43331  1.0000
  C   C132      1.0  0.42953  0.64276  0.52757  1.0000
  H   H108      1.0  0.43041  0.66680  0.53916  1.0000
  H   H109      1.0  0.45217  0.64442  0.55686  1.0000
  H   H110      1.0  0.40755  0.62252  0.56173  1.0000
  C   C133      1.0  0.98650  0.24562  0.32353  1.0000
  C   C134      1.0  0.93041  0.19525  0.35436  1.0000
  C   C135      1.0  0.96327  0.20997  0.31446  1.0000
  C   C136      1.0  0.52298  0.26079  0.32373  1.0000
  C   C137      1.0  0.54621  0.29645  0.31518  1.0000
  C   C138      1.0  0.57894  0.31109  0.35575  1.0000
  N   N49       1.0  0.97090  0.19108  0.25838  1.0000
  N   N50       1.0  0.53876  0.31542  0.25894  1.0000
  H   H111      1.0  0.48984  0.20202  0.21701  1.0000
  H   H112      1.0  0.95502  0.16743  0.24628  1.0000
  H   H113      1.0  0.55450  0.33918  0.24767  1.0000
  H   H114      1.0  0.62668  0.32552  0.47513  1.0000
  H   H115      1.0  0.88240  0.18062  0.47322  1.0000
  C   C139      1.0  0.76512  0.24528  0.30191  1.0000
  C   C140      1.0  0.82076  0.24674  0.30109  1.0000
  C   C141      1.0  0.80105  0.26263  0.28365  1.0000
  C   C142      1.0  0.74417  0.26095  0.30177  1.0000
  C   C143      1.0  0.70826  0.24357  0.28325  1.0000
  C   C144      1.0  0.68852  0.25945  0.30050  1.0000
  N   N51       1.0  0.81660  0.29272  0.23860  1.0000
  N   N52       1.0  0.69278  0.21347  0.23822  1.0000
  H   H116      1.0  0.80335  0.30050  0.20615  1.0000
  H   H117      1.0  0.84015  0.30332  0.22029  1.0000
  H   H118      1.0  0.66928  0.20300  0.21952  1.0000
  H   H119      1.0  0.70610  0.20578  0.20578  1.0000
  H   H120      1.0  0.66347  0.30025  0.33439  1.0000
  H   H121      1.0  0.84576  0.20591  0.33520  1.0000
  C   C145      1.0  0.76152  0.02118  0.34845  1.0000
  C   C146      1.0  0.75228  0.07022  0.36880  1.0000
  C   C147      1.0  0.74180  0.03736  0.33232  1.0000
  C   C148      1.0  0.74816  0.48513  0.34823  1.0000
  C   C149      1.0  0.76787  0.46901  0.33123  1.0000
  C   C150      1.0  0.75751  0.43612  0.36738  1.0000
  N   N53       1.0  0.71421  0.02239  0.27736  1.0000
  N   N54       1.0  0.79534  0.48407  0.27590  1.0000
  H   H122      1.0  0.70990  0.50310  0.24038  1.0000
  H   H123      1.0  0.70054  0.03268  0.26420  1.0000
  H   H124      1.0  0.80890  0.47371  0.26193  1.0000
  H   H125      1.0  0.79949  0.00333  0.23906  1.0000
  H   H126      1.0  0.72847  0.38107  0.47421  1.0000
  H   H127      1.0  0.78171  0.12535  0.47540  1.0000
  C   C151      1.0  0.63179  0.24327  0.24443  1.0000
  N   N55       1.0  0.60329  0.24385  0.26821  1.0000
  H   H128      1.0  0.64066  0.25060  0.18060  1.0000
  C   C152      1.0  0.75523  0.39677  0.25731  1.0000
  N   N56       1.0  0.74830  0.36439  0.25140  1.0000
  H   H129      1.0  0.74247  0.40393  0.21438  1.0000
  C   C153      1.0  0.63443  0.35004  0.29628  1.0000
  N   N57       1.0  0.66417  0.37801  0.31335  1.0000
  H   H130      1.0  0.63486  0.33095  0.26155  1.0000
  C   C154      1.0  0.87728  0.26273  0.24472  1.0000
  N   N58       1.0  0.90578  0.26215  0.26854  1.0000
  H   H131      1.0  0.86813  0.25490  0.18136  1.0000
  C   C155      1.0  0.75426  0.10958  0.25860  1.0000
  N   N59       1.0  0.76083  0.14182  0.25192  1.0000
  H   H132      1.0  0.76665  0.10224  0.21488  1.0000
  C   C156      1.0  0.87508  0.15597  0.29502  1.0000
  N   N60       1.0  0.84540  0.12800  0.31260  1.0000
  H   H133      1.0  0.87449  0.17501  0.26046  1.0000
  C   C157      1.0  0.97077  0.26539  0.34071  1.0000
  C   C158      1.0  0.93765  0.25177  0.37475  1.0000
  C   C159      1.0  0.91993  0.21679  0.39559  1.0000
  H   H134      1.0  0.98450  0.29111  0.34087  1.0000
  N   N61       1.0  0.89269  0.20380  0.45217  1.0000
  C   C160      1.0  0.58928  0.28945  0.39695  1.0000
  C   C161      1.0  0.57175  0.25451  0.37549  1.0000
  C   C162      1.0  0.53872  0.24102  0.34067  1.0000
  N   N62       1.0  0.61637  0.30233  0.45402  1.0000
  H   H135      1.0  0.52497  0.21530  0.34076  1.0000
  H   H136      1.0  0.62093  0.28764  0.49085  1.0000
  H   H137      1.0  0.88837  0.21859  0.48934  1.0000
  C   C163      1.0  0.75030  0.21036  0.32462  1.0000
  C   C164      1.0  0.76782  0.19232  0.31755  1.0000
  C   C165      1.0  0.80382  0.21100  0.31524  1.0000
  H   H138      1.0  0.72529  0.19670  0.34122  1.0000
  N   N63       1.0  0.82146  0.19463  0.33335  1.0000
  C   C166      1.0  0.70544  0.29520  0.31438  1.0000
  C   C167      1.0  0.74145  0.31391  0.31676  1.0000
  C   C168      1.0  0.75896  0.29587  0.32433  1.0000
  N   N64       1.0  0.68778  0.31155  0.33241  1.0000
  H   H139      1.0  0.78395  0.30955  0.34108  1.0000
  H   H140      1.0  0.69874  0.33430  0.35583  1.0000
  H   H141      1.0  0.81048  0.17186  0.35663  1.0000
  C   C169      1.0  0.79614  0.04316  0.37090  1.0000
  C   C170      1.0  0.80889  0.07764  0.38836  1.0000
  C   C171      1.0  0.78544  0.08866  0.40581  1.0000
  H   H142      1.0  0.81289  0.03460  0.37489  1.0000
  N   N65       1.0  0.79676  0.11778  0.45433  1.0000
  C   C172      1.0  0.72443  0.41763  0.40484  1.0000
  C   C173      1.0  0.70089  0.42858  0.38783  1.0000
  C   C174      1.0  0.71357  0.46309  0.37098  1.0000
  N   N66       1.0  0.71331  0.38856  0.45346  1.0000
  H   H143      1.0  0.69680  0.47162  0.37549  1.0000
  H   H144      1.0  0.69134  0.37783  0.48291  1.0000
  H   H145      1.0  0.81880  0.12846  0.48341  1.0000
  C   C175      1.0  0.63945  0.23459  0.39906  1.0000
  C   C176      1.0  0.65260  0.24047  0.31037  1.0000
  C   C177      1.0  0.59123  0.23908  0.35372  1.0000
  N   N67       1.0  0.61037  0.23505  0.41710  1.0000
  O   O13       1.0  0.65753  0.23141  0.46819  1.0000
  C   C178      1.0  0.66826  0.25663  0.53742  1.0000
  H   H146      1.0  0.68338  0.28211  0.51023  1.0000
  H   H147      1.0  0.68388  0.25228  0.58477  1.0000
  H   H148      1.0  0.64666  0.25472  0.57396  1.0000
  C   C179      1.0  0.78490  0.40161  0.39491  1.0000
  C   C180      1.0  0.77091  0.41576  0.33551  1.0000
  C   C181      1.0  0.75924  0.34972  0.31190  1.0000
  N   N68       1.0  0.77792  0.36901  0.38214  1.0000
  O   O14       1.0  0.80064  0.41960  0.47121  1.0000
  C   C182      1.0  0.80065  0.40136  0.54980  1.0000
  H   H149      1.0  0.77494  0.38312  0.57071  1.0000
  H   H150      1.0  0.81287  0.41944  0.60411  1.0000
  H   H151      1.0  0.81485  0.38833  0.53799  1.0000
  C   C183      1.0  0.60768  0.37308  0.38846  1.0000
  C   C184      1.0  0.60481  0.34502  0.33965  1.0000
  C   C185      1.0  0.66739  0.40402  0.36466  1.0000
  N   N69       1.0  0.63865  0.40160  0.39918  1.0000
  O   O15       1.0  0.58045  0.37086  0.43304  1.0000
  C   C186      1.0  0.58007  0.36418  0.52748  1.0000
  H   H152      1.0  0.57901  0.34010  0.53971  1.0000
  H   H153      1.0  0.55747  0.36275  0.55641  1.0000
  H   H154      1.0  0.60209  0.38443  0.56150  1.0000
  C   C187      1.0  0.87006  0.27193  0.39944  1.0000
  C   C188      1.0  0.85668  0.26569  0.31108  1.0000
  C   C189      1.0  0.91826  0.26738  0.35376  1.0000
  N   N70       1.0  0.89920  0.27156  0.41708  1.0000
  O   O16       1.0  0.85205  0.27515  0.46870  1.0000
  C   C190      1.0  0.84142  0.24996  0.53800  1.0000
  H   H155      1.0  0.82623  0.22447  0.51092  1.0000
  H   H156      1.0  0.82591  0.25435  0.58560  1.0000
  H   H157      1.0  0.86308  0.25186  0.57421  1.0000
  C   C191      1.0  0.72518  0.10492  0.39697  1.0000
  C   C192      1.0  0.73899  0.09069  0.33716  1.0000
  C   C193      1.0  0.75004  0.15652  0.31274  1.0000
  N   N71       1.0  0.73186  0.13740  0.38381  1.0000
  O   O17       1.0  0.70971  0.08708  0.47370  1.0000
  C   C194      1.0  0.70988  0.10546  0.55218  1.0000
  H   H158      1.0  0.73563  0.12384  0.57243  1.0000
  H   H159      1.0  0.69790  0.08750  0.60685  1.0000
  H   H160      1.0  0.69553  0.11836  0.54058  1.0000
  C   C195      1.0  0.90199  0.13335  0.38827  1.0000
  C   C196      1.0  0.90477  0.16120  0.33862  1.0000
  C   C197      1.0  0.84232  0.10212  0.36426  1.0000
  N   N72       1.0  0.87108  0.10479  0.39932  1.0000
  O   O18       1.0  0.92926  0.13587  0.43331  1.0000
  C   C198      1.0  0.92953  0.14276  0.52757  1.0000
  H   H161      1.0  0.93041  0.16680  0.53916  1.0000
  H   H162      1.0  0.95217  0.14442  0.55686  1.0000
  H   H163      1.0  0.90755  0.12252  0.56173  1.0000
  C   C199      1.0  0.98650  0.74562  0.32353  1.0000
  C   C200      1.0  0.93041  0.69525  0.35436  1.0000
  C   C201      1.0  0.96327  0.70998  0.31446  1.0000
  C   C202      1.0  0.52298  0.76079  0.32373  1.0000
  C   C203      1.0  0.54621  0.79645  0.31518  1.0000
  C   C204      1.0  0.57894  0.81109  0.35575  1.0000
  N   N73       1.0  0.97090  0.69108  0.25838  1.0000
  N   N74       1.0  0.53876  0.81543  0.25894  1.0000
  H   H164      1.0  0.48984  0.70202  0.21701  1.0000
  H   H165      1.0  0.95501  0.66743  0.24628  1.0000
  H   H166      1.0  0.55450  0.83918  0.24767  1.0000
  H   H167      1.0  0.62668  0.82552  0.47513  1.0000
  H   H168      1.0  0.88240  0.68062  0.47322  1.0000
  C   C205      1.0  0.76512  0.74528  0.30191  1.0000
  C   C206      1.0  0.82076  0.74674  0.30109  1.0000
  C   C207      1.0  0.80105  0.76263  0.28365  1.0000
  C   C208      1.0  0.74417  0.76095  0.30177  1.0000
  C   C209      1.0  0.70826  0.74357  0.28325  1.0000
  C   C210      1.0  0.68852  0.75945  0.30050  1.0000
  N   N75       1.0  0.81660  0.79272  0.23860  1.0000
  N   N76       1.0  0.69278  0.71347  0.23822  1.0000
  H   H169      1.0  0.80335  0.80050  0.20615  1.0000
  H   H170      1.0  0.84015  0.80332  0.22029  1.0000
  H   H171      1.0  0.66928  0.70300  0.21952  1.0000
  H   H172      1.0  0.70610  0.70578  0.20578  1.0000
  H   H173      1.0  0.66347  0.80025  0.33439  1.0000
  H   H174      1.0  0.84576  0.70590  0.33520  1.0000
  C   C211      1.0  0.76152  0.52118  0.34845  1.0000
  C   C212      1.0  0.75228  0.57022  0.36880  1.0000
  C   C213      1.0  0.74180  0.53736  0.33232  1.0000
  C   C214      1.0  0.74816  0.98513  0.34823  1.0000
  C   C215      1.0  0.76787  0.96901  0.33123  1.0000
  C   C216      1.0  0.75751  0.93612  0.36738  1.0000
  N   N77       1.0  0.71421  0.52239  0.27736  1.0000
  N   N78       1.0  0.79534  0.98407  0.27590  1.0000
  H   H175      1.0  0.70990  0.00310  0.24038  1.0000
  H   H176      1.0  0.70054  0.53268  0.26420  1.0000
  H   H177      1.0  0.80890  0.97371  0.26193  1.0000
  H   H178      1.0  0.79949  0.50333  0.23906  1.0000
  H   H179      1.0  0.72847  0.88107  0.47421  1.0000
  H   H180      1.0  0.78171  0.62535  0.47540  1.0000
  C   C217      1.0  0.63179  0.74327  0.24443  1.0000
  N   N79       1.0  0.60329  0.74385  0.26821  1.0000
  H   H181      1.0  0.64066  0.75060  0.18060  1.0000
  C   C218      1.0  0.75523  0.89677  0.25731  1.0000
  N   N80       1.0  0.74830  0.86439  0.25140  1.0000
  H   H182      1.0  0.74247  0.90393  0.21438  1.0000
  C   C219      1.0  0.63443  0.85004  0.29628  1.0000
  N   N81       1.0  0.66417  0.87801  0.31335  1.0000
  H   H183      1.0  0.63486  0.83095  0.26155  1.0000
  C   C220      1.0  0.87728  0.76273  0.24472  1.0000
  N   N82       1.0  0.90578  0.76215  0.26854  1.0000
  H   H184      1.0  0.86813  0.75490  0.18136  1.0000
  C   C221      1.0  0.75426  0.60958  0.25861  1.0000
  N   N83       1.0  0.76083  0.64182  0.25192  1.0000
  H   H185      1.0  0.76665  0.60224  0.21488  1.0000
  C   C222      1.0  0.87508  0.65597  0.29502  1.0000
  N   N84       1.0  0.84540  0.62800  0.31260  1.0000
  H   H186      1.0  0.87449  0.67501  0.26046  1.0000
  C   C223      1.0  0.97078  0.76539  0.34071  1.0000
  C   C224      1.0  0.93765  0.75177  0.37475  1.0000
  C   C225      1.0  0.91993  0.71679  0.39559  1.0000
  H   H187      1.0  0.98450  0.79111  0.34087  1.0000
  N   N85       1.0  0.89269  0.70380  0.45217  1.0000
  C   C226      1.0  0.58928  0.78945  0.39695  1.0000
  C   C227      1.0  0.57175  0.75451  0.37549  1.0000
  C   C228      1.0  0.53872  0.74102  0.34067  1.0000
  N   N86       1.0  0.61637  0.80233  0.45402  1.0000
  H   H188      1.0  0.52497  0.71530  0.34076  1.0000
  H   H189      1.0  0.62093  0.78764  0.49085  1.0000
  H   H190      1.0  0.88837  0.71859  0.48934  1.0000
  C   C229      1.0  0.75030  0.71037  0.32462  1.0000
  C   C230      1.0  0.76782  0.69233  0.31755  1.0000
  C   C231      1.0  0.80382  0.71100  0.31524  1.0000
  H   H191      1.0  0.72529  0.69670  0.34122  1.0000
  N   N87       1.0  0.82146  0.69463  0.33335  1.0000
  C   C232      1.0  0.70544  0.79520  0.31438  1.0000
  C   C233      1.0  0.74145  0.81391  0.31676  1.0000
  C   C234      1.0  0.75896  0.79587  0.32433  1.0000
  N   N88       1.0  0.68778  0.81156  0.33241  1.0000
  H   H192      1.0  0.78395  0.80955  0.34108  1.0000
  H   H193      1.0  0.69874  0.83430  0.35583  1.0000
  H   H194      1.0  0.81048  0.67186  0.35663  1.0000
  C   C235      1.0  0.79614  0.54316  0.37090  1.0000
  C   C236      1.0  0.80889  0.57764  0.38836  1.0000
  C   C237      1.0  0.78544  0.58866  0.40581  1.0000
  H   H195      1.0  0.81289  0.53460  0.37489  1.0000
  N   N89       1.0  0.79676  0.61778  0.45433  1.0000
  C   C238      1.0  0.72443  0.91763  0.40484  1.0000
  C   C239      1.0  0.70089  0.92858  0.38783  1.0000
  C   C240      1.0  0.71357  0.96309  0.37098  1.0000
  N   N90       1.0  0.71331  0.88856  0.45346  1.0000
  H   H196      1.0  0.69680  0.97162  0.37549  1.0000
  H   H197      1.0  0.69134  0.87784  0.48291  1.0000
  H   H198      1.0  0.81880  0.62847  0.48341  1.0000
  C   C241      1.0  0.63945  0.73459  0.39906  1.0000
  C   C242      1.0  0.65260  0.74047  0.31037  1.0000
  C   C243      1.0  0.59123  0.73908  0.35372  1.0000
  N   N91       1.0  0.61037  0.73505  0.41710  1.0000
  O   O19       1.0  0.65753  0.73142  0.46819  1.0000
  C   C244      1.0  0.66826  0.75663  0.53742  1.0000
  H   H199      1.0  0.68338  0.78211  0.51023  1.0000
  H   H200      1.0  0.68388  0.75229  0.58477  1.0000
  H   H201      1.0  0.64666  0.75471  0.57396  1.0000
  C   C245      1.0  0.78490  0.90161  0.39491  1.0000
  C   C246      1.0  0.77091  0.91576  0.33551  1.0000
  C   C247      1.0  0.75924  0.84972  0.31190  1.0000
  N   N92       1.0  0.77792  0.86901  0.38214  1.0000
  O   O20       1.0  0.80064  0.91960  0.47121  1.0000
  C   C248      1.0  0.80065  0.90136  0.54980  1.0000
  H   H202      1.0  0.77494  0.88312  0.57071  1.0000
  H   H203      1.0  0.81287  0.91944  0.60411  1.0000
  H   H204      1.0  0.81485  0.88833  0.53799  1.0000
  C   C249      1.0  0.60768  0.87308  0.38846  1.0000
  C   C250      1.0  0.60481  0.84502  0.33965  1.0000
  C   C251      1.0  0.66739  0.90402  0.36466  1.0000
  N   N93       1.0  0.63865  0.90160  0.39918  1.0000
  O   O21       1.0  0.58045  0.87086  0.43304  1.0000
  C   C252      1.0  0.58007  0.86418  0.52748  1.0000
  H   H205      1.0  0.57901  0.84010  0.53971  1.0000
  H   H206      1.0  0.55747  0.86275  0.55641  1.0000
  H   H207      1.0  0.60209  0.88443  0.56150  1.0000
  C   C253      1.0  0.87006  0.77193  0.39944  1.0000
  C   C254      1.0  0.85668  0.76569  0.31108  1.0000
  C   C255      1.0  0.91826  0.76738  0.35376  1.0000
  N   N94       1.0  0.89920  0.77156  0.41708  1.0000
  O   O22       1.0  0.85205  0.77515  0.46870  1.0000
  C   C256      1.0  0.84142  0.74996  0.53800  1.0000
  H   H208      1.0  0.82623  0.72447  0.51092  1.0000
  H   H209      1.0  0.82591  0.75435  0.58561  1.0000
  H   H210      1.0  0.86308  0.75186  0.57421  1.0000
  C   C257      1.0  0.72518  0.60492  0.39698  1.0000
  C   C258      1.0  0.73899  0.59070  0.33716  1.0000
  C   C259      1.0  0.75004  0.65652  0.31274  1.0000
  N   N95       1.0  0.73186  0.63740  0.38381  1.0000
  O   O23       1.0  0.70971  0.58708  0.47370  1.0000
  C   C260      1.0  0.70988  0.60546  0.55218  1.0000
  H   H211      1.0  0.73563  0.62384  0.57243  1.0000
  H   H212      1.0  0.69790  0.58750  0.60685  1.0000
  H   H213      1.0  0.69553  0.61836  0.54058  1.0000
  C   C261      1.0  0.90199  0.63335  0.38827  1.0000
  C   C262      1.0  0.90477  0.66120  0.33862  1.0000
  C   C263      1.0  0.84232  0.60212  0.36426  1.0000
  N   N96       1.0  0.87108  0.60479  0.39932  1.0000
  O   O24       1.0  0.92926  0.63587  0.43331  1.0000
  C   C264      1.0  0.92953  0.64276  0.52757  1.0000
  H   H214      1.0  0.93041  0.66680  0.53916  1.0000
  H   H215      1.0  0.95217  0.64442  0.55686  1.0000
  H   H216      1.0  0.90755  0.62252  0.56173  1.0000
