data_image0
_chemical_formula_structural       C2NOCHC2NOCHC2NOCHC2NOCHC4H2C4H2C4H2C4H2C4H2C4H2C4H2C4H2C2NOCHC2NOCHC2NOCHC2NOCHC2NOCHC2NOCHC2NOCHC2NOCHC4H2C4H2C4H2C4H2C4H2C4H2C4H2C4H2C4H2C4H2C6H3C6H3C6H3C6H3C6H3C6H3C6H3C6H3C6H3C6H3C6H3C6H3C6H3C6H3C6H3C6H3C6H3C6H3C6H3C6H3C4H2C4H2C4H2C4H2C2NOCHC2NOCHC2NOCHC2NOCHC2NOCHC2NOCHC2NOCHC2NOCHC4H2C4H2C4H2C4H2C4H2C4H2C4H2C4H2C2NOCHC2NOCHC2NOCHC2NOCHC2NOCHC2NOCHC2NOCHC2NOCHC2NOCHC2NOCH
_chemical_formula_sum              "C330 N30 O30 H150"
_cell_length_a       44.1636
_cell_length_b       44.1636
_cell_length_c       14.7912
_cell_angle_alpha    90
_cell_angle_beta     90
_cell_angle_gamma    90

_space_group_name_H-M_alt    "P 1"
_space_group_IT_number       1

loop_
  _space_group_symop_operation_xyz
  'x, y, z'

loop_
  _atom_site_type_symbol
  _atom_site_label
  _atom_site_symmetry_multiplicity
  _atom_site_fract_x
  _atom_site_fract_y
  _atom_site_fract_z
  _atom_site_occupancy
  C   C1        1.0  0.36190  0.05399  0.26813  1.0000
  C   C2        1.0  0.33148  0.04580  0.26855  1.0000
  N   N1        1.0  0.32242  0.04477  0.18275  1.0000
  O   O1        1.0  0.37253  0.05805  0.18255  1.0000
  C   C3        1.0  0.34696  0.05189  0.13355  1.0000
  H   H1        1.0  0.34650  0.05299  0.06459  1.0000
  C   C4        1.0  0.65225  0.96008  0.26800  1.0000
  C   C5        1.0  0.68266  0.96827  0.26843  1.0000
  N   N2        1.0  0.69171  0.96934  0.18263  1.0000
  O   O2        1.0  0.64160  0.95605  0.18243  1.0000
  C   C6        1.0  0.66719  0.96219  0.13342  1.0000
  H   H2        1.0  0.66761  0.96121  0.06446  1.0000
  C   C7        1.0  0.96011  0.36190  0.26814  1.0000
  C   C8        1.0  0.96830  0.33148  0.26857  1.0000
  N   N3        1.0  0.96934  0.32243  0.18276  1.0000
  O   O3        1.0  0.95606  0.37254  0.18256  1.0000
  C   C9        1.0  0.96222  0.34696  0.13356  1.0000
  H   H3        1.0  0.96112  0.34651  0.06461  1.0000
  C   C10       1.0  0.05402  0.65225  0.26802  1.0000
  C   C11       1.0  0.04583  0.68267  0.26844  1.0000
  N   N4        1.0  0.04476  0.69171  0.18264  1.0000
  O   O4        1.0  0.05805  0.64161  0.18244  1.0000
  C   C12       1.0  0.05192  0.66719  0.13344  1.0000
  H   H4        1.0  0.05291  0.66762  0.06447  1.0000
  C   C13       1.0  0.13642  0.55798  0.34513  1.0000
  C   C14       1.0  0.19857  0.54077  0.34549  1.0000
  C   C15       1.0  0.18276  0.54446  0.26306  1.0000
  C   C16       1.0  0.15191  0.55280  0.26285  1.0000
  H   H5        1.0  0.14100  0.55555  0.20233  1.0000
  H   H6        1.0  0.19372  0.54165  0.20266  1.0000
  C   C17       1.0  0.87771  0.45616  0.34523  1.0000
  C   C18       1.0  0.81556  0.47332  0.34560  1.0000
  C   C19       1.0  0.83138  0.46967  0.26316  1.0000
  C   C20       1.0  0.86223  0.46134  0.26295  1.0000
  H   H7        1.0  0.87314  0.45861  0.20243  1.0000
  H   H8        1.0  0.82041  0.47248  0.20276  1.0000
  C   C21       1.0  0.55798  0.87768  0.34514  1.0000
  C   C22       1.0  0.54082  0.81553  0.34552  1.0000
  C   C23       1.0  0.54450  0.83134  0.26308  1.0000
  C   C24       1.0  0.55281  0.86219  0.26287  1.0000
  H   H9        1.0  0.55555  0.87310  0.20234  1.0000
  H   H10       1.0  0.54168  0.82037  0.20268  1.0000
  C   C25       1.0  0.45615  0.13640  0.34523  1.0000
  C   C26       1.0  0.47334  0.19855  0.34559  1.0000
  C   C27       1.0  0.46966  0.18273  0.26316  1.0000
  C   C28       1.0  0.46132  0.15189  0.26295  1.0000
  H   H11       1.0  0.45858  0.14098  0.20243  1.0000
  H   H12       1.0  0.47246  0.19370  0.20276  1.0000
  C   C29       1.0  0.19099  0.14389  0.34629  1.0000
  C   C30       1.0  0.21411  0.08280  0.34683  1.0000
  C   C31       1.0  0.20693  0.09780  0.26490  1.0000
  C   C32       1.0  0.19526  0.12768  0.26460  1.0000
  H   H13       1.0  0.19108  0.13801  0.20392  1.0000
  H   H14       1.0  0.21145  0.08754  0.20434  1.0000
  C   C33       1.0  0.82313  0.87023  0.34641  1.0000
  C   C34       1.0  0.80004  0.93133  0.34721  1.0000
  C   C35       1.0  0.80725  0.91638  0.26519  1.0000
  C   C36       1.0  0.81886  0.88648  0.26479  1.0000
  H   H15       1.0  0.82306  0.87618  0.20406  1.0000
  H   H16       1.0  0.80271  0.92665  0.20466  1.0000
  C   C37       1.0  0.87025  0.19099  0.34631  1.0000
  C   C38       1.0  0.93134  0.21410  0.34685  1.0000
  C   C39       1.0  0.91633  0.20692  0.26492  1.0000
  C   C40       1.0  0.88646  0.19525  0.26462  1.0000
  H   H17       1.0  0.87613  0.19108  0.20394  1.0000
  H   H18       1.0  0.92660  0.21144  0.20436  1.0000
  C   C41       1.0  0.14390  0.82313  0.34637  1.0000
  C   C42       1.0  0.08283  0.80000  0.34712  1.0000
  C   C43       1.0  0.09775  0.80727  0.26510  1.0000
  C   C44       1.0  0.12765  0.81889  0.26473  1.0000
  H   H19       1.0  0.13794  0.82311  0.20402  1.0000
  H   H20       1.0  0.08747  0.80274  0.20457  1.0000
  C   C45       1.0  0.31605  0.62885  0.26746  1.0000
  C   C46       1.0  0.30449  0.59943  0.26786  1.0000
  N   N5        1.0  0.29777  0.59247  0.18260  1.0000
  O   O5        1.0  0.31707  0.64057  0.18235  1.0000
  C   C47       1.0  0.30575  0.61677  0.13359  1.0000
  H   H21       1.0  0.30261  0.61785  0.06527  1.0000
  C   C48       1.0  0.69810  0.38523  0.26736  1.0000
  C   C49       1.0  0.70970  0.41464  0.26775  1.0000
  N   N6        1.0  0.71636  0.42162  0.18247  1.0000
  O   O6        1.0  0.69705  0.37352  0.18226  1.0000
  C   C50       1.0  0.70847  0.39727  0.13353  1.0000
  H   H22       1.0  0.71130  0.39631  0.06507  1.0000
  C   C51       1.0  0.62885  0.69804  0.26746  1.0000
  C   C52       1.0  0.59942  0.70958  0.26790  1.0000
  N   N7        1.0  0.59245  0.71631  0.18264  1.0000
  O   O7        1.0  0.64057  0.69704  0.18235  1.0000
  C   C53       1.0  0.61676  0.70835  0.13362  1.0000
  H   H23       1.0  0.61784  0.71150  0.06530  1.0000
  C   C54       1.0  0.38523  0.31601  0.26736  1.0000
  C   C55       1.0  0.41464  0.30441  0.26775  1.0000
  N   N8        1.0  0.42162  0.29775  0.18245  1.0000
  O   O8        1.0  0.37352  0.31707  0.18226  1.0000
  C   C56       1.0  0.39727  0.30564  0.13353  1.0000
  H   H24       1.0  0.39630  0.30281  0.06506  1.0000
  C   C57       1.0  0.22168  0.92255  0.26722  1.0000
  C   C58       1.0  0.22774  0.95359  0.26796  1.0000
  N   N9        1.0  0.23138  0.96211  0.18231  1.0000
  O   O9        1.0  0.22108  0.91129  0.18155  1.0000
  C   C59       1.0  0.22720  0.93695  0.13292  1.0000
  H   H25       1.0  0.22883  0.93687  0.06404  1.0000
  C   C60       1.0  0.79242  0.09160  0.26718  1.0000
  C   C61       1.0  0.78632  0.06056  0.26786  1.0000
  N   N10       1.0  0.78271  0.05206  0.18219  1.0000
  O   O10       1.0  0.79304  0.10287  0.18153  1.0000
  C   C62       1.0  0.78687  0.07723  0.13285  1.0000
  H   H26       1.0  0.78535  0.07731  0.06396  1.0000
  C   C63       1.0  0.09158  0.22168  0.26725  1.0000
  C   C64       1.0  0.06054  0.22776  0.26796  1.0000
  N   N11       1.0  0.05203  0.23139  0.18230  1.0000
  O   O11       1.0  0.10284  0.22107  0.18158  1.0000
  C   C65       1.0  0.07719  0.22720  0.13292  1.0000
  H   H27       1.0  0.07727  0.22882  0.06406  1.0000
  C   C66       1.0  0.92253  0.79243  0.26716  1.0000
  C   C67       1.0  0.95358  0.78635  0.26786  1.0000
  N   N12       1.0  0.96209  0.78273  0.18220  1.0000
  O   O12       1.0  0.91126  0.79303  0.18150  1.0000
  C   C68       1.0  0.93691  0.78687  0.13284  1.0000
  H   H28       1.0  0.93684  0.78535  0.06395  1.0000
  C   C69       1.0  0.29607  0.40619  0.34610  1.0000
  C   C70       1.0  0.28423  0.47048  0.34614  1.0000
  C   C71       1.0  0.28769  0.45418  0.26425  1.0000
  C   C72       1.0  0.29382  0.42269  0.26420  1.0000
  H   H29       1.0  0.29606  0.41172  0.20360  1.0000
  H   H30       1.0  0.28514  0.46508  0.20366  1.0000
  C   C73       1.0  0.71809  0.60794  0.34608  1.0000
  C   C74       1.0  0.72993  0.54365  0.34620  1.0000
  C   C75       1.0  0.72645  0.55993  0.26429  1.0000
  C   C76       1.0  0.72034  0.59143  0.26419  1.0000
  H   H31       1.0  0.71808  0.60238  0.20359  1.0000
  H   H32       1.0  0.72901  0.54902  0.20371  1.0000
  C   C77       1.0  0.40619  0.71806  0.34606  1.0000
  C   C78       1.0  0.47046  0.72993  0.34608  1.0000
  C   C79       1.0  0.45418  0.72644  0.26419  1.0000
  C   C80       1.0  0.42268  0.72030  0.26414  1.0000
  H   H33       1.0  0.41172  0.71805  0.20355  1.0000
  H   H34       1.0  0.46508  0.72898  0.20360  1.0000
  C   C81       1.0  0.60794  0.29604  0.34613  1.0000
  C   C82       1.0  0.54366  0.28417  0.34626  1.0000
  C   C83       1.0  0.55993  0.28770  0.26433  1.0000
  C   C84       1.0  0.59142  0.29381  0.26424  1.0000
  H   H35       1.0  0.60237  0.29608  0.20363  1.0000
  H   H36       1.0  0.54902  0.28514  0.20375  1.0000
  C   C85       1.0  0.21462  0.25317  0.34582  1.0000
  C   C86       1.0  0.26093  0.29951  0.34570  1.0000
  C   C87       1.0  0.24864  0.28817  0.26391  1.0000
  C   C88       1.0  0.22595  0.26544  0.26394  1.0000
  H   H37       1.0  0.21798  0.25760  0.20334  1.0000
  H   H38       1.0  0.25647  0.29614  0.20330  1.0000
  C   C89       1.0  0.79950  0.76096  0.34580  1.0000
  C   C90       1.0  0.75317  0.71463  0.34568  1.0000
  C   C91       1.0  0.76550  0.72594  0.26389  1.0000
  C   C92       1.0  0.78819  0.74866  0.26393  1.0000
  H   H39       1.0  0.79619  0.75649  0.20333  1.0000
  H   H40       1.0  0.75768  0.71795  0.20328  1.0000
  C   C93       1.0  0.76097  0.21463  0.34581  1.0000
  C   C94       1.0  0.71462  0.26093  0.34569  1.0000
  C   C95       1.0  0.72596  0.24863  0.26390  1.0000
  C   C96       1.0  0.74869  0.22594  0.26393  1.0000
  H   H41       1.0  0.75653  0.21796  0.20334  1.0000
  H   H42       1.0  0.71798  0.25646  0.20329  1.0000
  C   C97       1.0  0.25317  0.79949  0.34581  1.0000
  C   C98       1.0  0.29950  0.75318  0.34569  1.0000
  C   C99       1.0  0.28819  0.76550  0.26391  1.0000
  C   C100      1.0  0.26547  0.78819  0.26393  1.0000
  H   H43       1.0  0.25764  0.79618  0.20334  1.0000
  H   H44       1.0  0.29618  0.75768  0.20330  1.0000
  C   C101      1.0  0.48435  0.02975  0.34530  1.0000
  C   C102      1.0  0.52979  0.98433  0.34512  1.0000
  C   C103      1.0  0.51833  0.99576  0.26268  1.0000
  C   C104      1.0  0.49578  0.01835  0.26274  1.0000
  H   H45       1.0  0.48777  0.02635  0.20233  1.0000
  H   H46       1.0  0.52632  0.98777  0.20224  1.0000
  C   C105      1.0  0.98436  0.48436  0.34530  1.0000
  C   C106      1.0  0.02978  0.52979  0.34512  1.0000
  C   C107      1.0  0.01835  0.51834  0.26268  1.0000
  C   C108      1.0  0.99576  0.49578  0.26274  1.0000
  H   H47       1.0  0.98776  0.48778  0.20233  1.0000
  H   H48       1.0  0.02633  0.52633  0.20224  1.0000
  C   C109      1.0  0.28409  0.03555  0.34888  1.0000
  C   C110      1.0  0.26421  0.06049  0.34779  1.0000
  C   C111      1.0  0.23252  0.05632  0.34705  1.0000
  C   C112      1.0  0.22086  0.02636  0.34723  1.0000
  C   C113      1.0  0.24058  0.00093  0.34834  1.0000
  C   C114      1.0  0.27221  0.00592  0.34912  1.0000
  H   H49       1.0  0.19793  0.02305  0.34685  1.0000
  H   H50       1.0  0.28678  0.98785  0.34989  1.0000
  H   H51       1.0  0.27299  0.08201  0.34772  1.0000
  C   C115      1.0  0.73005  0.97856  0.34878  1.0000
  C   C116      1.0  0.74993  0.95362  0.34786  1.0000
  C   C117      1.0  0.78162  0.95780  0.34716  1.0000
  C   C118      1.0  0.79327  0.98777  0.34729  1.0000
  C   C119      1.0  0.77354  0.01320  0.34826  1.0000
  C   C120      1.0  0.74191  0.00819  0.34894  1.0000
  H   H52       1.0  0.81620  0.99108  0.34700  1.0000
  H   H53       1.0  0.72734  0.02626  0.34961  1.0000
  H   H54       1.0  0.74115  0.93211  0.34787  1.0000
  C   C121      1.0  0.97855  0.28410  0.34889  1.0000
  C   C122      1.0  0.95362  0.26421  0.34781  1.0000
  C   C123      1.0  0.95781  0.23252  0.34706  1.0000
  C   C124      1.0  0.98778  0.22087  0.34723  1.0000
  C   C125      1.0  0.01320  0.24060  0.34836  1.0000
  C   C126      1.0  0.00819  0.27223  0.34913  1.0000
  H   H55       1.0  0.99109  0.19794  0.34687  1.0000
  H   H56       1.0  0.02626  0.28681  0.34990  1.0000
  H   H57       1.0  0.93210  0.27298  0.34774  1.0000
  C   C127      1.0  0.03555  0.73005  0.34881  1.0000
  C   C128      1.0  0.06050  0.74992  0.34786  1.0000
  C   C129      1.0  0.05634  0.78161  0.34713  1.0000
  C   C130      1.0  0.02638  0.79328  0.34725  1.0000
  C   C131      1.0  0.00094  0.77357  0.34826  1.0000
  C   C132      1.0  0.00592  0.74194  0.34898  1.0000
  H   H58       1.0  0.02309  0.81622  0.34694  1.0000
  H   H59       1.0  0.98785  0.72737  0.34966  1.0000
  H   H60       1.0  0.08201  0.74113  0.34784  1.0000
  C   C133      1.0  0.23005  0.53556  0.34640  1.0000
  C   C134      1.0  0.24992  0.56051  0.34754  1.0000
  C   C135      1.0  0.28161  0.55635  0.34825  1.0000
  C   C136      1.0  0.29328  0.52638  0.34793  1.0000
  C   C137      1.0  0.27357  0.50095  0.34674  1.0000
  C   C138      1.0  0.24193  0.50593  0.34600  1.0000
  H   H61       1.0  0.31621  0.52309  0.34823  1.0000
  H   H62       1.0  0.22737  0.48785  0.34516  1.0000
  H   H63       1.0  0.24113  0.58202  0.34766  1.0000
  C   C139      1.0  0.78408  0.47854  0.34646  1.0000
  C   C140      1.0  0.76419  0.45360  0.34752  1.0000
  C   C141      1.0  0.73251  0.45778  0.34817  1.0000
  C   C142      1.0  0.72086  0.48776  0.34786  1.0000
  C   C143      1.0  0.74058  0.51318  0.34676  1.0000
  C   C144      1.0  0.77221  0.50817  0.34610  1.0000
  H   H64       1.0  0.69792  0.49107  0.34811  1.0000
  H   H65       1.0  0.78679  0.52624  0.34532  1.0000
  H   H66       1.0  0.77297  0.43208  0.34761  1.0000
  C   C145      1.0  0.53559  0.78405  0.34642  1.0000
  C   C146      1.0  0.56052  0.76416  0.34757  1.0000
  C   C147      1.0  0.55632  0.73247  0.34823  1.0000
  C   C148      1.0  0.52635  0.72083  0.34789  1.0000
  C   C149      1.0  0.50094  0.74057  0.34672  1.0000
  C   C150      1.0  0.50595  0.77219  0.34600  1.0000
  H   H67       1.0  0.52303  0.69790  0.34817  1.0000
  H   H68       1.0  0.48789  0.78678  0.34516  1.0000
  H   H69       1.0  0.58204  0.77292  0.34771  1.0000
  C   C151      1.0  0.47855  0.23003  0.34645  1.0000
  C   C152      1.0  0.45362  0.24991  0.34749  1.0000
  C   C153      1.0  0.45779  0.28160  0.34815  1.0000
  C   C154      1.0  0.48776  0.29325  0.34787  1.0000
  C   C155      1.0  0.51319  0.27353  0.34678  1.0000
  C   C156      1.0  0.50818  0.24190  0.34612  1.0000
  H   H70       1.0  0.49107  0.31619  0.34813  1.0000
  H   H71       1.0  0.52626  0.22732  0.34536  1.0000
  H   H72       1.0  0.43210  0.24113  0.34757  1.0000
  C   C157      1.0  0.19279  0.22929  0.34640  1.0000
  C   C158      1.0  0.20234  0.19866  0.34646  1.0000
  C   C159      1.0  0.18115  0.17458  0.34648  1.0000
  C   C160      1.0  0.14988  0.18150  0.34724  1.0000
  C   C161      1.0  0.13961  0.21185  0.34775  1.0000
  C   C162      1.0  0.16130  0.23552  0.34701  1.0000
  H   H73       1.0  0.13440  0.16421  0.34754  1.0000
  H   H74       1.0  0.15407  0.25756  0.34716  1.0000
  H   H75       1.0  0.22503  0.19381  0.34607  1.0000
  C   C163      1.0  0.82133  0.78483  0.34637  1.0000
  C   C164      1.0  0.81179  0.81546  0.34649  1.0000
  C   C165      1.0  0.83298  0.83954  0.34650  1.0000
  C   C166      1.0  0.86424  0.83262  0.34723  1.0000
  C   C167      1.0  0.87452  0.80227  0.34769  1.0000
  C   C168      1.0  0.85283  0.77860  0.34694  1.0000
  H   H76       1.0  0.87972  0.84991  0.34756  1.0000
  H   H77       1.0  0.86005  0.75656  0.34706  1.0000
  H   H78       1.0  0.78910  0.82031  0.34614  1.0000
  C   C169      1.0  0.78485  0.19279  0.34640  1.0000
  C   C170      1.0  0.81548  0.20233  0.34649  1.0000
  C   C171      1.0  0.83956  0.18115  0.34650  1.0000
  C   C172      1.0  0.83263  0.14988  0.34725  1.0000
  C   C173      1.0  0.80229  0.13961  0.34775  1.0000
  C   C174      1.0  0.77861  0.16130  0.34699  1.0000
  H   H79       1.0  0.84992  0.13440  0.34755  1.0000
  H   H80       1.0  0.75657  0.15407  0.34713  1.0000
  H   H81       1.0  0.82033  0.22503  0.34609  1.0000
  C   C175      1.0  0.22929  0.82133  0.34637  1.0000
  C   C176      1.0  0.19866  0.81179  0.34649  1.0000
  C   C177      1.0  0.17459  0.83298  0.34648  1.0000
  C   C178      1.0  0.18151  0.86424  0.34721  1.0000
  C   C179      1.0  0.21186  0.87451  0.34770  1.0000
  C   C180      1.0  0.23553  0.85282  0.34696  1.0000
  H   H82       1.0  0.16422  0.87972  0.34753  1.0000
  H   H83       1.0  0.25757  0.86005  0.34709  1.0000
  H   H84       1.0  0.19381  0.78910  0.34612  1.0000
  C   C181      1.0  0.32133  0.72929  0.34643  1.0000
  C   C182      1.0  0.31179  0.69866  0.34765  1.0000
  C   C183      1.0  0.33299  0.67459  0.34869  1.0000
  C   C184      1.0  0.36425  0.68151  0.34823  1.0000
  C   C185      1.0  0.37452  0.71186  0.34673  1.0000
  C   C186      1.0  0.35283  0.73553  0.34598  1.0000
  H   H85       1.0  0.37973  0.66423  0.34863  1.0000
  H   H86       1.0  0.36006  0.75757  0.34507  1.0000
  H   H87       1.0  0.28911  0.69381  0.34778  1.0000
  C   C187      1.0  0.69279  0.28481  0.34643  1.0000
  C   C188      1.0  0.70233  0.31544  0.34761  1.0000
  C   C189      1.0  0.68114  0.33952  0.34866  1.0000
  C   C190      1.0  0.64988  0.33259  0.34822  1.0000
  C   C191      1.0  0.63960  0.30225  0.34677  1.0000
  C   C192      1.0  0.66130  0.27858  0.34602  1.0000
  H   H88       1.0  0.63439  0.34988  0.34863  1.0000
  H   H89       1.0  0.65407  0.25654  0.34515  1.0000
  H   H90       1.0  0.72502  0.32029  0.34771  1.0000
  C   C193      1.0  0.72930  0.69279  0.34642  1.0000
  C   C194      1.0  0.69867  0.70232  0.34763  1.0000
  C   C195      1.0  0.67460  0.68112  0.34867  1.0000
  C   C196      1.0  0.68153  0.64986  0.34821  1.0000
  C   C197      1.0  0.71188  0.63960  0.34672  1.0000
  C   C198      1.0  0.73555  0.66130  0.34597  1.0000
  H   H91       1.0  0.66425  0.63437  0.34862  1.0000
  H   H92       1.0  0.75758  0.65408  0.34507  1.0000
  H   H93       1.0  0.69381  0.72501  0.34777  1.0000
  C   C199      1.0  0.28482  0.32134  0.34644  1.0000
  C   C200      1.0  0.31544  0.31179  0.34763  1.0000
  C   C201      1.0  0.33952  0.33298  0.34867  1.0000
  C   C202      1.0  0.33260  0.36424  0.34824  1.0000
  C   C203      1.0  0.30227  0.37452  0.34677  1.0000
  C   C204      1.0  0.27859  0.35284  0.34603  1.0000
  H   H94       1.0  0.34990  0.37972  0.34863  1.0000
  H   H95       1.0  0.25655  0.36007  0.34514  1.0000
  H   H96       1.0  0.32029  0.28910  0.34773  1.0000
  C   C205      1.0  0.44763  0.10569  0.34586  1.0000
  C   C206      1.0  0.41677  0.09734  0.34804  1.0000
  C   C207      1.0  0.40843  0.06648  0.34929  1.0000
  C   C208      1.0  0.43106  0.04397  0.34834  1.0000
  C   C209      1.0  0.46189  0.05222  0.34612  1.0000
  C   C210      1.0  0.47014  0.08305  0.34495  1.0000
  H   H97       1.0  0.42510  0.02153  0.34896  1.0000
  H   H98       1.0  0.49257  0.08902  0.34362  1.0000
  H   H99       1.0  0.40036  0.11375  0.34855  1.0000
  C   C211      1.0  0.56651  0.90839  0.34576  1.0000
  C   C212      1.0  0.59737  0.91673  0.34794  1.0000
  C   C213      1.0  0.60572  0.94759  0.34917  1.0000
  C   C214      1.0  0.58308  0.97011  0.34821  1.0000
  C   C215      1.0  0.55226  0.96186  0.34600  1.0000
  C   C216      1.0  0.54400  0.93103  0.34483  1.0000
  H   H100      1.0  0.58905  0.99255  0.34880  1.0000
  H   H101      1.0  0.52157  0.92506  0.34349  1.0000
  H   H102      1.0  0.61378  0.90032  0.34846  1.0000
  C   C217      1.0  0.90842  0.44764  0.34585  1.0000
  C   C218      1.0  0.91676  0.41678  0.34804  1.0000
  C   C219      1.0  0.94763  0.40843  0.34930  1.0000
  C   C220      1.0  0.97014  0.43107  0.34834  1.0000
  C   C221      1.0  0.96189  0.46189  0.34611  1.0000
  C   C222      1.0  0.93106  0.47014  0.34493  1.0000
  H   H103      1.0  0.99258  0.42510  0.34896  1.0000
  H   H104      1.0  0.92509  0.49258  0.34360  1.0000
  H   H105      1.0  0.90035  0.40037  0.34855  1.0000
  C   C223      1.0  0.10572  0.56651  0.34576  1.0000
  C   C224      1.0  0.09738  0.59738  0.34795  1.0000
  C   C225      1.0  0.06651  0.60572  0.34919  1.0000
  C   C226      1.0  0.04400  0.58309  0.34821  1.0000
  C   C227      1.0  0.05225  0.55226  0.34600  1.0000
  C   C228      1.0  0.08308  0.54401  0.34483  1.0000
  H   H106      1.0  0.02156  0.58905  0.34881  1.0000
  H   H107      1.0  0.08904  0.52157  0.34348  1.0000
  H   H108      1.0  0.11379  0.61378  0.34846  1.0000
  C   C229      1.0  0.37772  0.05795  0.35005  1.0000
  C   C230      1.0  0.31557  0.04076  0.34976  1.0000
  C   C231      1.0  0.33137  0.04453  0.43218  1.0000
  C   C232      1.0  0.36223  0.05286  0.43234  1.0000
  H   H109      1.0  0.37313  0.05566  0.49285  1.0000
  H   H110      1.0  0.32041  0.04177  0.49259  1.0000
  C   C233      1.0  0.63642  0.95612  0.34992  1.0000
  C   C234      1.0  0.69857  0.97334  0.34964  1.0000
  C   C235      1.0  0.68276  0.96957  0.43205  1.0000
  C   C236      1.0  0.65192  0.96121  0.43222  1.0000
  H   H111      1.0  0.64102  0.95841  0.49273  1.0000
  H   H112      1.0  0.69373  0.97232  0.49247  1.0000
  C   C237      1.0  0.95615  0.37773  0.35005  1.0000
  C   C238      1.0  0.97333  0.31557  0.34979  1.0000
  C   C239      1.0  0.96958  0.33138  0.43220  1.0000
  C   C240      1.0  0.96125  0.36223  0.43236  1.0000
  H   H113      1.0  0.95845  0.37314  0.49286  1.0000
  H   H114      1.0  0.97234  0.32042  0.49261  1.0000
  C   C241      1.0  0.05798  0.63643  0.34994  1.0000
  C   C242      1.0  0.04076  0.69857  0.34965  1.0000
  C   C243      1.0  0.04451  0.68276  0.43207  1.0000
  C   C244      1.0  0.05288  0.65192  0.43224  1.0000
  H   H115      1.0  0.05568  0.64101  0.49275  1.0000
  H   H116      1.0  0.04176  0.69373  0.49248  1.0000
  C   C245      1.0  0.15225  0.55408  0.42706  1.0000
  C   C246      1.0  0.18266  0.54587  0.42668  1.0000
  N   N13       1.0  0.19171  0.54485  0.51249  1.0000
  O   O13       1.0  0.14161  0.55817  0.51262  1.0000
  C   C247      1.0  0.16718  0.55201  0.56165  1.0000
  H   H117      1.0  0.16763  0.55312  0.63060  1.0000
  C   C248      1.0  0.86188  0.46003  0.42717  1.0000
  C   C249      1.0  0.83146  0.46821  0.42678  1.0000
  N   N14       1.0  0.82242  0.46924  0.51260  1.0000
  O   O14       1.0  0.87253  0.45598  0.51272  1.0000
  C   C250      1.0  0.84695  0.46208  0.56175  1.0000
  H   H118      1.0  0.84653  0.46107  0.63072  1.0000
  C   C251      1.0  0.55409  0.86186  0.42708  1.0000
  C   C252      1.0  0.54590  0.83144  0.42671  1.0000
  N   N15       1.0  0.54489  0.82239  0.51251  1.0000
  O   O15       1.0  0.55817  0.87251  0.51264  1.0000
  C   C253      1.0  0.55202  0.84694  0.56168  1.0000
  H   H119      1.0  0.55313  0.84649  0.63062  1.0000
  C   C254      1.0  0.46003  0.15223  0.42717  1.0000
  C   C255      1.0  0.46821  0.18265  0.42677  1.0000
  N   N16       1.0  0.46925  0.19169  0.51258  1.0000
  O   O16       1.0  0.45597  0.14158  0.51272  1.0000
  C   C256      1.0  0.46208  0.16716  0.56175  1.0000
  H   H120      1.0  0.46107  0.16759  0.63071  1.0000
  C   C257      1.0  0.19808  0.12884  0.42779  1.0000
  C   C258      1.0  0.20964  0.09941  0.42736  1.0000
  N   N17       1.0  0.21637  0.09246  0.51261  1.0000
  O   O17       1.0  0.19708  0.14056  0.51289  1.0000
  C   C259      1.0  0.20840  0.11676  0.56162  1.0000
  H   H121      1.0  0.21155  0.11784  0.62994  1.0000
  C   C260      1.0  0.81603  0.88524  0.42796  1.0000
  C   C261      1.0  0.80443  0.91465  0.42763  1.0000
  N   N18       1.0  0.79777  0.92162  0.51292  1.0000
  O   O18       1.0  0.81709  0.87351  0.51304  1.0000
  C   C262      1.0  0.80567  0.89726  0.56181  1.0000
  H   H122      1.0  0.80283  0.89628  0.63027  1.0000
  C   C263      1.0  0.88530  0.19807  0.42781  1.0000
  C   C264      1.0  0.91472  0.20963  0.42738  1.0000
  N   N19       1.0  0.92168  0.21637  0.51263  1.0000
  O   O19       1.0  0.87357  0.19708  0.51290  1.0000
  C   C265      1.0  0.89737  0.20840  0.56164  1.0000
  H   H123      1.0  0.89629  0.21155  0.62996  1.0000
  C   C266      1.0  0.12889  0.81602  0.42792  1.0000
  C   C267      1.0  0.09948  0.80441  0.42757  1.0000
  N   N20       1.0  0.09252  0.79774  0.51287  1.0000
  O   O20       1.0  0.14061  0.81708  0.51301  1.0000
  C   C268      1.0  0.11687  0.80565  0.56177  1.0000
  H   H124      1.0  0.11785  0.80281  0.63023  1.0000
  C   C269      1.0  0.32314  0.64390  0.34897  1.0000
  C   C270      1.0  0.30001  0.58283  0.34840  1.0000
  C   C271      1.0  0.30722  0.59781  0.43036  1.0000
  C   C272      1.0  0.31890  0.62768  0.43065  1.0000
  H   H125      1.0  0.32309  0.63801  0.49133  1.0000
  H   H126      1.0  0.30271  0.58753  0.49091  1.0000
  C   C273      1.0  0.69099  0.37021  0.34888  1.0000
  C   C274      1.0  0.71408  0.43133  0.34817  1.0000
  C   C275      1.0  0.70688  0.41633  0.43015  1.0000
  C   C276      1.0  0.69525  0.38643  0.43053  1.0000
  H   H127      1.0  0.69106  0.37613  0.49123  1.0000
  H   H128      1.0  0.71142  0.42659  0.49070  1.0000
  C   C277      1.0  0.64390  0.69095  0.34896  1.0000
  C   C278      1.0  0.58278  0.71403  0.34838  1.0000
  C   C279      1.0  0.59782  0.70689  0.43032  1.0000
  C   C280      1.0  0.62770  0.69522  0.43063  1.0000
  H   H129      1.0  0.63803  0.69107  0.49132  1.0000
  H   H130      1.0  0.58756  0.71142  0.49088  1.0000
  C   C281      1.0  0.37021  0.32312  0.34889  1.0000
  C   C282      1.0  0.43133  0.30003  0.34816  1.0000
  C   C283      1.0  0.41634  0.30723  0.43014  1.0000
  C   C284      1.0  0.38644  0.31885  0.43053  1.0000
  H   H131      1.0  0.37614  0.32305  0.49124  1.0000
  H   H132      1.0  0.42661  0.30268  0.49068  1.0000
  C   C285      1.0  0.21806  0.90618  0.34853  1.0000
  C   C286      1.0  0.22993  0.97046  0.34880  1.0000
  C   C287      1.0  0.22635  0.95414  0.43061  1.0000
  C   C288      1.0  0.22020  0.92265  0.43051  1.0000
  H   H133      1.0  0.21790  0.91166  0.49105  1.0000
  H   H134      1.0  0.22885  0.96502  0.49126  1.0000
  C   C289      1.0  0.79608  0.10794  0.34852  1.0000
  C   C290      1.0  0.78417  0.04368  0.34866  1.0000
  C   C291      1.0  0.78783  0.05995  0.43052  1.0000
  C   C292      1.0  0.79396  0.09144  0.43047  1.0000
  H   H135      1.0  0.79631  0.10241  0.49103  1.0000
  H   H136      1.0  0.78534  0.04906  0.49115  1.0000
  C   C293      1.0  0.10794  0.21805  0.34857  1.0000
  C   C294      1.0  0.04368  0.22997  0.34880  1.0000
  C   C295      1.0  0.05998  0.22636  0.43063  1.0000
  C   C296      1.0  0.09146  0.22020  0.43054  1.0000
  H   H137      1.0  0.10244  0.21788  0.49108  1.0000
  H   H138      1.0  0.04909  0.22885  0.49127  1.0000
  C   C297      1.0  0.90618  0.79607  0.34848  1.0000
  C   C298      1.0  0.97048  0.78423  0.34865  1.0000
  C   C299      1.0  0.95417  0.78781  0.43049  1.0000
  C   C300      1.0  0.92267  0.79393  0.43044  1.0000
  H   H139      1.0  0.91170  0.79625  0.49099  1.0000
  H   H140      1.0  0.96505  0.78531  0.49112  1.0000
  C   C301      1.0  0.29253  0.42253  0.42750  1.0000
  C   C302      1.0  0.28647  0.45358  0.42690  1.0000
  N   N21       1.0  0.28286  0.46206  0.51260  1.0000
  O   O21       1.0  0.29316  0.41124  0.51313  1.0000
  C   C303      1.0  0.28705  0.43688  0.56188  1.0000
  H   H141      1.0  0.28545  0.43677  0.63075  1.0000
  C   C304      1.0  0.72165  0.59161  0.42750  1.0000
  C   C305      1.0  0.72774  0.56057  0.42693  1.0000
  N   N22       1.0  0.73130  0.55209  0.51264  1.0000
  O   O22       1.0  0.72099  0.60291  0.51312  1.0000
  C   C306      1.0  0.72713  0.57728  0.56189  1.0000
  H   H142      1.0  0.72861  0.57737  0.63079  1.0000
  C   C307      1.0  0.42253  0.72160  0.42746  1.0000
  C   C308      1.0  0.45357  0.72768  0.42686  1.0000
  N   N23       1.0  0.46205  0.73128  0.51255  1.0000
  O   O23       1.0  0.41123  0.72096  0.51308  1.0000
  C   C309      1.0  0.43687  0.72707  0.56184  1.0000
  H   H143      1.0  0.43676  0.72867  0.63071  1.0000
  C   C310      1.0  0.59161  0.29248  0.42755  1.0000
  C   C311      1.0  0.56058  0.28638  0.42700  1.0000
  N   N24       1.0  0.55210  0.28281  0.51270  1.0000
  O   O24       1.0  0.60291  0.29314  0.51317  1.0000
  C   C312      1.0  0.57729  0.28699  0.56195  1.0000
  H   H144      1.0  0.57739  0.28551  0.63085  1.0000
  C   C313      1.0  0.22697  0.26459  0.42708  1.0000
  C   C314      1.0  0.24939  0.28695  0.42646  1.0000
  N   N25       1.0  0.25661  0.29249  0.51224  1.0000
  O   O25       1.0  0.21994  0.25582  0.51280  1.0000
  C   C315      1.0  0.23894  0.27409  0.56158  1.0000
  H   H145      1.0  0.23987  0.27345  0.63054  1.0000
  C   C316      1.0  0.78712  0.74956  0.42706  1.0000
  C   C317      1.0  0.76469  0.72721  0.42644  1.0000
  N   N26       1.0  0.75748  0.72166  0.51222  1.0000
  O   O26       1.0  0.79417  0.75831  0.51278  1.0000
  C   C318      1.0  0.77513  0.74009  0.56155  1.0000
  H   H146      1.0  0.77428  0.74064  0.63052  1.0000
  C   C319      1.0  0.74954  0.22697  0.42708  1.0000
  C   C320      1.0  0.72718  0.24939  0.42645  1.0000
  N   N27       1.0  0.72164  0.25661  0.51224  1.0000
  O   O27       1.0  0.75831  0.21993  0.51279  1.0000
  C   C321      1.0  0.74004  0.23894  0.56157  1.0000
  H   H147      1.0  0.74067  0.23987  0.63053  1.0000
  C   C322      1.0  0.26457  0.78712  0.42707  1.0000
  C   C323      1.0  0.28692  0.76469  0.42645  1.0000
  N   N28       1.0  0.29247  0.75748  0.51224  1.0000
  O   O28       1.0  0.25581  0.79417  0.51278  1.0000
  C   C324      1.0  0.27404  0.77513  0.56156  1.0000
  H   H148      1.0  0.27348  0.77427  0.63054  1.0000
  C   C325      1.0  0.49586  0.01823  0.42723  1.0000
  C   C326      1.0  0.51813  0.99600  0.42661  1.0000
  N   N29       1.0  0.52457  0.98956  0.51242  1.0000
  O   O29       1.0  0.48790  0.02620  0.51295  1.0000
  C   C327      1.0  0.50653  0.00759  0.56183  1.0000
  H   H149      1.0  0.50668  0.00744  0.63087  1.0000
  C   C328      1.0  0.99588  0.49586  0.42723  1.0000
  C   C329      1.0  0.01811  0.51813  0.42661  1.0000
  N   N30       1.0  0.02455  0.52457  0.51242  1.0000
  O   O30       1.0  0.98791  0.48790  0.51295  1.0000
  C   C330      1.0  0.00652  0.50653  0.56183  1.0000
  H   H150      1.0  0.00667  0.50668  0.63087  1.0000
