data_image0
_chemical_formula_structural       C2ONCH3CNC2OCH3NC2OCH3NC23H15C24H15CNCOCH3CNCOCH3C2OCH3
_chemical_formula_sum              "C66 O6 N6 H48"
_cell_length_a       29.9453
_cell_length_b       29.9452
_cell_length_c       14.8913
_cell_angle_alpha    90
_cell_angle_beta     90
_cell_angle_gamma    120

_space_group_name_H-M_alt    "P 1"
_space_group_IT_number       1

loop_
  _space_group_symop_operation_xyz
  'x, y, z'

loop_
  _atom_site_type_symbol
  _atom_site_label
  _atom_site_symmetry_multiplicity
  _atom_site_fract_x
  _atom_site_fract_y
  _atom_site_fract_z
  _atom_site_occupancy
  C   C1        1.0  0.02997  0.50421  0.25743  1.0000
  C   C2        1.0  0.06085  0.52986  0.33346  1.0000
  O   O1        1.0  0.05005  0.50358  0.17529  1.0000
  N   N1        1.0  0.03433  0.52753  0.40937  1.0000
  C   C3        1.0  0.05557  0.54425  0.11683  1.0000
  H   H1        1.0  0.07187  0.54079  0.05352  1.0000
  H   H2        1.0  0.01835  0.54118  0.10264  1.0000
  H   H3        1.0  0.08180  0.58222  0.14527  1.0000
  C   C4        1.0  0.11642  0.55762  0.33543  1.0000
  N   N2        1.0  0.52925  0.49941  0.26504  1.0000
  C   C5        1.0  0.50426  0.52688  0.26089  1.0000
  C   C6        1.0  0.47996  0.53191  0.33918  1.0000
  O   O2        1.0  0.50389  0.54823  0.17993  1.0000
  C   C7        1.0  0.46136  0.51423  0.12357  1.0000
  H   H4        1.0  0.46416  0.53444  0.06108  1.0000
  H   H5        1.0  0.42436  0.50373  0.15496  1.0000
  H   H6        1.0  0.46262  0.47932  0.10729  1.0000
  N   N3        1.0  0.52929  0.03264  0.27416  1.0000
  C   C8        1.0  0.50402  0.98035  0.26555  1.0000
  C   C9        1.0  0.47831  0.94925  0.34127  1.0000
  O   O3        1.0  0.50473  0.96058  0.18315  1.0000
  C   C10       1.0  0.46411  0.95523  0.12476  1.0000
  H   H7        1.0  0.46769  0.93923  0.06120  1.0000
  H   H8        1.0  0.46715  0.99252  0.11108  1.0000
  H   H9        1.0  0.42614  0.92886  0.15292  1.0000
  N   N4        1.0  0.97761  0.47920  0.26525  1.0000
  C   C11       1.0  0.28419  0.64232  0.34638  1.0000
  C   C12       1.0  0.31313  0.61652  0.34866  1.0000
  C   C13       1.0  0.36785  0.64309  0.35117  1.0000
  C   C14       1.0  0.39352  0.69779  0.35203  1.0000
  C   C15       1.0  0.36703  0.72600  0.34910  1.0000
  C   C16       1.0  0.31234  0.69709  0.34654  1.0000
  C   C17       1.0  0.39638  0.61581  0.35034  1.0000
  C   C18       1.0  0.38008  0.56954  0.39927  1.0000
  C   C19       1.0  0.40769  0.54266  0.39641  1.0000
  C   C20       1.0  0.45271  0.56016  0.34338  1.0000
  C   C21       1.0  0.46967  0.60701  0.29617  1.0000
  C   C22       1.0  0.44220  0.63391  0.29924  1.0000
  C   C23       1.0  0.22843  0.61412  0.34272  1.0000
  C   C24       1.0  0.20089  0.56911  0.28959  1.0000
  C   C25       1.0  0.14647  0.54163  0.28610  1.0000
  C   C26       1.0  0.14390  0.60213  0.38970  1.0000
  C   C27       1.0  0.19834  0.62979  0.39280  1.0000
  C   C28       1.0  0.39477  0.78176  0.34711  1.0000
  C   C29       1.0  0.37804  0.81121  0.39647  1.0000
  C   C30       1.0  0.40549  0.86570  0.39468  1.0000
  C   C31       1.0  0.45070  0.89372  0.34228  1.0000
  C   C32       1.0  0.46768  0.86430  0.29360  1.0000
  C   C33       1.0  0.44045  0.80989  0.29585  1.0000
  H   H10       1.0  0.12902  0.50874  0.24837  1.0000
  H   H11       1.0  0.22037  0.55603  0.25135  1.0000
  H   H12       1.0  0.12436  0.61549  0.42717  1.0000
  H   H13       1.0  0.21589  0.66133  0.43392  1.0000
  H   H14       1.0  0.34589  0.79315  0.43609  1.0000
  H   H15       1.0  0.39148  0.88486  0.43154  1.0000
  H   H16       1.0  0.45426  0.79087  0.25814  1.0000
  H   H17       1.0  0.50107  0.88222  0.25723  1.0000
  H   H18       1.0  0.45576  0.66676  0.26164  1.0000
  H   H19       1.0  0.50296  0.62274  0.25948  1.0000
  H   H20       1.0  0.39373  0.50919  0.43237  1.0000
  H   H21       1.0  0.34788  0.55504  0.43883  1.0000
  H   H22       1.0  0.29372  0.57709  0.34786  1.0000
  H   H23       1.0  0.29247  0.71654  0.34098  1.0000
  H   H24       1.0  0.43286  0.71780  0.35720  1.0000
  C   C34       1.0  0.72786  0.36532  0.33335  1.0000
  C   C35       1.0  0.69927  0.39142  0.33022  1.0000
  C   C36       1.0  0.64455  0.36535  0.33200  1.0000
  C   C37       1.0  0.61841  0.31068  0.33585  1.0000
  C   C38       1.0  0.64459  0.28214  0.33825  1.0000
  C   C39       1.0  0.69933  0.31062  0.33702  1.0000
  C   C40       1.0  0.61672  0.39332  0.33212  1.0000
  C   C41       1.0  0.63463  0.43962  0.38188  1.0000
  C   C42       1.0  0.60704  0.46641  0.38453  1.0000
  C   C43       1.0  0.56022  0.44820  0.33716  1.0000
  C   C44       1.0  0.54243  0.40273  0.28583  1.0000
  C   C45       1.0  0.56988  0.37570  0.28411  1.0000
  C   C46       1.0  0.78365  0.39339  0.33466  1.0000
  C   C47       1.0  0.81173  0.43936  0.38521  1.0000
  C   C48       1.0  0.86614  0.46664  0.38756  1.0000
  C   C49       1.0  0.89563  0.44947  0.33958  1.0000
  C   C50       1.0  0.86766  0.40408  0.28761  1.0000
  C   C51       1.0  0.81318  0.37656  0.28579  1.0000
  C   C52       1.0  0.61664  0.22642  0.34254  1.0000
  C   C53       1.0  0.63206  0.19634  0.29186  1.0000
  C   C54       1.0  0.60426  0.14190  0.29468  1.0000
  C   C55       1.0  0.55987  0.11445  0.34926  1.0000
  C   C56       1.0  0.54426  0.14451  0.39948  1.0000
  C   C57       1.0  0.57188  0.19892  0.39629  1.0000
  H   H25       1.0  0.88402  0.50015  0.42360  1.0000
  H   H26       1.0  0.79266  0.45326  0.42259  1.0000
  H   H27       1.0  0.88687  0.38991  0.25129  1.0000
  H   H28       1.0  0.79515  0.34419  0.24668  1.0000
  H   H29       1.0  0.66337  0.21389  0.25023  1.0000
  H   H30       1.0  0.61734  0.12235  0.25657  1.0000
  H   H31       1.0  0.55898  0.21843  0.43490  1.0000
  H   H32       1.0  0.51145  0.12709  0.43741  1.0000
  H   H33       1.0  0.55550  0.34309  0.24567  1.0000
  H   H34       1.0  0.50878  0.38845  0.25025  1.0000
  H   H35       1.0  0.62180  0.49979  0.42095  1.0000
  H   H36       1.0  0.66772  0.45392  0.41899  1.0000
  H   H37       1.0  0.71897  0.43071  0.32421  1.0000
  H   H38       1.0  0.71904  0.29101  0.34261  1.0000
  H   H39       1.0  0.57898  0.29099  0.33737  1.0000
  C   C58       1.0  0.53249  0.47538  0.34013  1.0000
  N   N5        1.0  0.48227  0.50639  0.41338  1.0000
  C   C59       1.0  0.50781  0.47938  0.41820  1.0000
  O   O4        1.0  0.50405  0.45186  0.49401  1.0000
  C   C60       1.0  0.53285  0.48303  0.56921  1.0000
  H   H40       1.0  0.52739  0.45740  0.62532  1.0000
  H   H41       1.0  0.51922  0.50917  0.58976  1.0000
  H   H42       1.0  0.57405  0.50528  0.55433  1.0000
  C   C61       1.0  0.53182  0.05889  0.35056  1.0000
  N   N6        1.0  0.48076  0.97543  0.41769  1.0000
  C   C62       1.0  0.50603  0.02775  0.42626  1.0000
  O   O5        1.0  0.50547  0.04749  0.50875  1.0000
  C   C63       1.0  0.54617  0.05278  0.56688  1.0000
  H   H43       1.0  0.54271  0.06876  0.63054  1.0000
  H   H44       1.0  0.58410  0.07911  0.53858  1.0000
  H   H45       1.0  0.54310  0.01545  0.58040  1.0000
  C   C64       1.0  0.95115  0.47693  0.34120  1.0000
  C   C65       1.0  0.98200  0.50254  0.41724  1.0000
  O   O6        1.0  0.96190  0.50336  0.49925  1.0000
  C   C66       1.0  0.95600  0.46262  0.55787  1.0000
  H   H46       1.0  0.93975  0.46628  0.62109  1.0000
  H   H47       1.0  0.99315  0.46544  0.57227  1.0000
  H   H48       1.0  0.92965  0.42472  0.52953  1.0000
