data_image0
_chemical_formula_structural       C2NHCHC2NHCH3CHC2H2CHC2H2C3H2C2HC2HC3H2C2HC2HC3NH5C6N2H6C6N2H6CHC3HCH3C3HCH3C3HCH3C3HCH3C3HCH3C3HN2H2C3HNC3NH3C3HNC3NH3C3H3C3HCH3CHC3HCH3C3HCH3C3HCH3C3NH5C6N2H6C6N2H6CHC3HCH3C3HCH3C3HCH3C3HCH3C3HCH3C3HN2H2C3HNC3NH3C3HNC3NH3C3H3C3HCH3CHC3HCH3C3HCH3C3HCH3C6N2H5C6N2H6C6N2H6C3HCH3C3HCH3C3HCH3C3HCH3C3HCH3C3HCH3C3HNC3NH3C3HNC3NH3C3HNC3NH3C3HCH3C3HCH3C3HCH3C3HCH3C3HCH3C3HCH3C6N2H5C6N2H6C6N2H6C3HCH3C3HCH3C3HCH3C3HCH3C3HCH3C3HCH3C3HNC3NH3C3HNC3NH3C3HNC3NH3C3HCH3C3HCH3C3HCH3C3HCH3C3HCH3C3HCH3
_chemical_formula_sum              "C336 N48 H312"
_cell_length_a       46.0828
_cell_length_b       46.0827
_cell_length_c       14.9292
_cell_angle_alpha    90
_cell_angle_beta     90
_cell_angle_gamma    120

_space_group_name_H-M_alt    "P 1"
_space_group_IT_number       1

loop_
  _space_group_symop_operation_xyz
  'x, y, z'

loop_
  _atom_site_type_symbol
  _atom_site_label
  _atom_site_symmetry_multiplicity
  _atom_site_fract_x
  _atom_site_fract_y
  _atom_site_fract_z
  _atom_site_occupancy
  C   C1        1.0  0.02172  0.26099  0.31884  1.0000
  C   C2        1.0  0.04289  0.29657  0.30699  1.0000
  N   N1        1.0  0.03254  0.31398  0.25453  1.0000
  H   H1        1.0  0.04674  0.33769  0.24183  1.0000
  C   C3        1.0  0.03896  0.24315  0.33734  1.0000
  H   H2        1.0  0.02629  0.21770  0.34280  1.0000
  C   C4        1.0  0.02172  0.76099  0.31884  1.0000
  C   C5        1.0  0.04289  0.79657  0.30699  1.0000
  N   N2        1.0  0.03254  0.81398  0.25453  1.0000
  H   H3        1.0  0.04674  0.83769  0.24183  1.0000
  C   C6        1.0  0.03896  0.74315  0.33734  1.0000
  H   H4        1.0  0.02629  0.71770  0.34280  1.0000
  H   H5        1.0  0.01317  0.30217  0.21557  1.0000
  H   H6        1.0  0.01317  0.80217  0.21557  1.0000
  C   C7        1.0  0.07613  0.31334  0.34316  1.0000
  H   H7        1.0  0.06905  0.25426  0.17642  1.0000
  C   C8        1.0  0.07354  0.25885  0.35573  1.0000
  C   C9        1.0  0.08231  0.36018  0.49245  1.0000
  H   H8        1.0  0.05835  0.33738  0.48156  1.0000
  H   H9        1.0  0.07700  0.38014  0.50885  1.0000
  C   C10       1.0  0.07613  0.81334  0.34316  1.0000
  H   H10       1.0  0.06905  0.75426  0.17642  1.0000
  C   C11       1.0  0.07354  0.75885  0.35573  1.0000
  C   C12       1.0  0.08231  0.86018  0.49245  1.0000
  H   H11       1.0  0.05835  0.83738  0.48156  1.0000
  H   H12       1.0  0.07700  0.88014  0.50885  1.0000
  C   C13       1.0  0.09169  0.24220  0.33382  1.0000
  C   C14       1.0  0.10529  0.24548  0.24592  1.0000
  C   C15       1.0  0.09257  0.25467  0.16519  1.0000
  H   H13       1.0  0.08828  0.23699  0.11116  1.0000
  H   H14       1.0  0.11109  0.27981  0.14293  1.0000
  C   C16       1.0  0.09092  0.29398  0.37137  1.0000
  C   C17       1.0  0.10675  0.23391  0.40435  1.0000
  H   H15       1.0  0.09786  0.23257  0.46812  1.0000
  C   C18       1.0  0.09741  0.34875  0.33685  1.0000
  C   C19       1.0  0.10470  0.37002  0.41287  1.0000
  H   H16       1.0  0.09458  0.35611  0.54973  1.0000
  C   C20       1.0  0.09169  0.74220  0.33382  1.0000
  C   C21       1.0  0.10529  0.74548  0.24592  1.0000
  C   C22       1.0  0.09257  0.75467  0.16519  1.0000
  H   H17       1.0  0.08828  0.73699  0.11116  1.0000
  H   H18       1.0  0.11109  0.77981  0.14293  1.0000
  C   C23       1.0  0.09092  0.79398  0.37137  1.0000
  C   C24       1.0  0.10675  0.73391  0.40435  1.0000
  H   H19       1.0  0.09786  0.73257  0.46812  1.0000
  C   C25       1.0  0.09741  0.84875  0.33685  1.0000
  C   C26       1.0  0.10470  0.87002  0.41287  1.0000
  H   H20       1.0  0.09458  0.85611  0.54973  1.0000
  C   C27       1.0  0.48545  0.24377  0.31992  1.0000
  C   C28       1.0  0.43128  0.19139  0.34654  1.0000
  C   C29       1.0  0.46419  0.20819  0.30828  1.0000
  N   N3        1.0  0.47419  0.19082  0.25443  1.0000
  H   H21       1.0  0.99317  0.20272  0.21427  1.0000
  H   H22       1.0  0.45978  0.16715  0.24165  1.0000
  H   H23       1.0  0.51317  0.30217  0.21557  1.0000
  H   H24       1.0  0.13273  0.33175  0.43030  1.0000
  H   H25       1.0  0.37607  0.17322  0.44044  1.0000
  C   C30       1.0  0.26356  0.24437  0.30557  1.0000
  C   C31       1.0  0.31813  0.24504  0.30868  1.0000
  C   C32       1.0  0.29911  0.26104  0.28778  1.0000
  C   C33       1.0  0.24340  0.26044  0.30348  1.0000
  C   C34       1.0  0.20800  0.24359  0.28363  1.0000
  C   C35       1.0  0.18884  0.25975  0.30034  1.0000
  N   N4        1.0  0.31485  0.29059  0.24156  1.0000
  N   N5        1.0  0.19258  0.21368  0.23897  1.0000
  H   H26       1.0  0.30195  0.29837  0.20825  1.0000
  H   H27       1.0  0.33829  0.30104  0.22440  1.0000
  H   H28       1.0  0.16935  0.20337  0.21987  1.0000
  H   H29       1.0  0.20574  0.20571  0.20781  1.0000
  H   H30       1.0  0.16492  0.30185  0.31240  1.0000
  H   H31       1.0  0.34182  0.20295  0.32865  1.0000
  C   C36       1.0  0.26165  0.02058  0.33215  1.0000
  C   C37       1.0  0.25816  0.07211  0.36084  1.0000
  C   C38       1.0  0.24477  0.03954  0.32092  1.0000
  C   C39       1.0  0.24534  0.48440  0.33148  1.0000
  C   C40       1.0  0.26216  0.46551  0.31775  1.0000
  C   C41       1.0  0.24891  0.43270  0.35613  1.0000
  N   N6        1.0  0.21685  0.02714  0.26817  1.0000
  N   N7        1.0  0.28990  0.47822  0.26420  1.0000
  H   H32       1.0  0.21098  0.50828  0.22840  1.0000
  H   H33       1.0  0.20462  0.03896  0.25869  1.0000
  H   H34       1.0  0.30199  0.46637  0.25287  1.0000
  H   H35       1.0  0.29555  0.99724  0.22526  1.0000
  H   H36       1.0  0.21347  0.37575  0.45294  1.0000
  H   H37       1.0  0.29366  0.12797  0.46124  1.0000
  C   C42       1.0  0.13504  0.24395  0.23388  1.0000
  H   H38       1.0  0.14669  0.25048  0.17263  1.0000
  C   C43       1.0  0.25989  0.34891  0.31516  1.0000
  C   C44       1.0  0.25489  0.36539  0.24090  1.0000
  C   C45       1.0  0.25646  0.39650  0.25430  1.0000
  H   H39       1.0  0.24857  0.40587  0.20345  1.0000
  C   C46       1.0  0.24432  0.34967  0.15076  1.0000
  H   H40       1.0  0.24545  0.32666  0.14473  1.0000
  H   H41       1.0  0.26087  0.36699  0.09967  1.0000
  H   H42       1.0  0.21869  0.34383  0.13688  1.0000
  C   C47       1.0  0.16078  0.40977  0.35113  1.0000
  C   C48       1.0  0.15232  0.38981  0.27194  1.0000
  C   C49       1.0  0.12102  0.35994  0.26624  1.0000
  H   H43       1.0  0.11666  0.34429  0.21272  1.0000
  C   C50       1.0  0.17550  0.39743  0.19466  1.0000
  H   H44       1.0  0.19826  0.42172  0.20000  1.0000
  H   H45       1.0  0.16298  0.39770  0.13280  1.0000
  H   H46       1.0  0.18257  0.37815  0.18919  1.0000
  C   C51       1.0  0.41522  0.26187  0.33869  1.0000
  C   C52       1.0  0.40086  0.25770  0.25142  1.0000
  C   C53       1.0  0.37117  0.25939  0.24004  1.0000
  H   H47       1.0  0.35902  0.25233  0.17953  1.0000
  C   C54       1.0  0.41278  0.24755  0.17084  1.0000
  H   H48       1.0  0.43622  0.24774  0.18134  1.0000
  H   H49       1.0  0.41686  0.26480  0.11581  1.0000
  H   H50       1.0  0.39389  0.22230  0.15038  1.0000
  C   C55       1.0  0.24691  0.15610  0.32318  1.0000
  C   C56       1.0  0.25220  0.14000  0.24850  1.0000
  C   C57       1.0  0.25073  0.10890  0.26093  1.0000
  H   H51       1.0  0.25857  0.09971  0.20954  1.0000
  C   C58       1.0  0.26287  0.15609  0.15879  1.0000
  H   H52       1.0  0.26155  0.17900  0.15330  1.0000
  H   H53       1.0  0.24652  0.13889  0.10718  1.0000
  H   H54       1.0  0.28859  0.16218  0.14520  1.0000
  C   C59       1.0  0.34635  0.09512  0.35196  1.0000
  C   C60       1.0  0.35450  0.11572  0.27411  1.0000
  C   C61       1.0  0.38580  0.14558  0.26904  1.0000
  H   H55       1.0  0.39003  0.16167  0.21669  1.0000
  C   C62       1.0  0.33109  0.10877  0.19773  1.0000
  H   H56       1.0  0.30833  0.08445  0.20237  1.0000
  H   H57       1.0  0.34341  0.10899  0.13503  1.0000
  H   H58       1.0  0.32406  0.12812  0.19454  1.0000
  C   C63       1.0  0.46830  0.26159  0.33998  1.0000
  C   C64       1.0  0.43390  0.24580  0.36079  1.0000
  C   C65       1.0  0.41679  0.21074  0.37715  1.0000
  H   H59       1.0  0.48090  0.28705  0.34488  1.0000
  N   N8        1.0  0.38681  0.19622  0.42145  1.0000
  N   N9        1.0  0.12148  0.30858  0.41272  1.0000
  H   H60       1.0  0.12985  0.29552  0.44185  1.0000
  H   H61       1.0  0.37914  0.20959  0.45235  1.0000
  C   C66       1.0  0.24825  0.20995  0.33046  1.0000
  C   C67       1.0  0.26531  0.19172  0.32888  1.0000
  C   C68       1.0  0.30094  0.20970  0.32430  1.0000
  H   H62       1.0  0.22337  0.19685  0.34647  1.0000
  N   N10       1.0  0.31799  0.19271  0.33615  1.0000
  C   C69       1.0  0.20587  0.29521  0.31369  1.0000
  C   C70       1.0  0.24147  0.31326  0.32015  1.0000
  C   C71       1.0  0.25848  0.29502  0.32641  1.0000
  N   N11       1.0  0.18863  0.31214  0.32236  1.0000
  H   H63       1.0  0.28320  0.30822  0.34398  1.0000
  H   H64       1.0  0.19936  0.33552  0.33824  1.0000
  H   H65       1.0  0.30699  0.16937  0.35231  1.0000
  C   C72       1.0  0.29641  0.03986  0.35282  1.0000
  C   C73       1.0  0.31218  0.07391  0.37635  1.0000
  C   C74       1.0  0.29181  0.08833  0.39382  1.0000
  H   H66       1.0  0.31104  0.02908  0.35708  1.0000
  N   N12       1.0  0.30625  0.11777  0.44050  1.0000
  C   C75       1.0  0.21539  0.41628  0.39008  1.0000
  C   C76       1.0  0.19500  0.43086  0.37528  1.0000
  C   C77       1.0  0.21067  0.46503  0.35316  1.0000
  N   N13       1.0  0.20106  0.38650  0.43522  1.0000
  H   H67       1.0  0.19606  0.47577  0.35889  1.0000
  H   H68       1.0  0.18051  0.37915  0.46860  1.0000
  H   H69       1.0  0.32720  0.12524  0.47199  1.0000
  C   C78       1.0  0.15313  0.24135  0.30717  1.0000
  C   C79       1.0  0.13769  0.23468  0.39321  1.0000
  C   C80       1.0  0.15436  0.23198  0.47569  1.0000
  H   H70       1.0  0.17718  0.23121  0.46160  1.0000
  H   H71       1.0  0.13738  0.20899  0.51153  1.0000
  H   H72       1.0  0.16081  0.25336  0.51942  1.0000
  C   C81       1.0  0.26343  0.41218  0.33925  1.0000
  C   C82       1.0  0.27419  0.39853  0.40887  1.0000
  C   C83       1.0  0.27206  0.36700  0.39607  1.0000
  H   H73       1.0  0.27503  0.35517  0.45051  1.0000
  C   C84       1.0  0.28404  0.41423  0.49906  1.0000
  H   H74       1.0  0.28524  0.43846  0.50228  1.0000
  H   H75       1.0  0.30883  0.41828  0.51607  1.0000
  H   H76       1.0  0.26619  0.39782  0.54942  1.0000
  C   C85       1.0  0.13603  0.40018  0.41846  1.0000
  H   H77       1.0  0.14236  0.41342  0.47730  1.0000
  C   C86       1.0  0.35389  0.26312  0.31354  1.0000
  C   C87       1.0  0.36990  0.27040  0.39887  1.0000
  C   C88       1.0  0.40072  0.27087  0.40918  1.0000
  H   H78       1.0  0.41011  0.27282  0.47259  1.0000
  C   C89       1.0  0.35401  0.27425  0.48144  1.0000
  H   H79       1.0  0.33125  0.27518  0.46769  1.0000
  H   H80       1.0  0.37145  0.29755  0.51534  1.0000
  H   H81       1.0  0.34766  0.25330  0.52673  1.0000
  C   C90       1.0  0.24380  0.09286  0.34542  1.0000
  C   C91       1.0  0.23314  0.10633  0.41577  1.0000
  C   C92       1.0  0.23509  0.13782  0.40394  1.0000
  H   H82       1.0  0.23208  0.14945  0.45878  1.0000
  C   C93       1.0  0.22333  0.09032  0.50562  1.0000
  H   H83       1.0  0.22233  0.06617  0.50819  1.0000
  H   H84       1.0  0.19846  0.08603  0.52275  1.0000
  H   H85       1.0  0.24108  0.10664  0.55628  1.0000
  C   C94       1.0  0.40969  0.15608  0.33887  1.0000
  C   C95       1.0  0.40267  0.13415  0.41325  1.0000
  C   C96       1.0  0.37131  0.10400  0.41830  1.0000
  H   H86       1.0  0.36516  0.09023  0.47623  1.0000
  C   C97       1.0  0.42545  0.14320  0.49179  1.0000
  H   H87       1.0  0.44938  0.16609  0.48129  1.0000
  H   H88       1.0  0.43079  0.12306  0.50539  1.0000
  H   H89       1.0  0.41349  0.14674  0.55064  1.0000
  C   C98       1.0  0.48545  0.74377  0.31992  1.0000
  C   C99       1.0  0.43128  0.69139  0.34654  1.0000
  C   C100      1.0  0.46419  0.70819  0.30828  1.0000
  N   N14       1.0  0.47419  0.69081  0.25443  1.0000
  H   H90       1.0  0.99317  0.70272  0.21427  1.0000
  H   H91       1.0  0.45978  0.66715  0.24165  1.0000
  H   H92       1.0  0.51317  0.80217  0.21557  1.0000
  H   H93       1.0  0.13273  0.83175  0.43030  1.0000
  H   H94       1.0  0.37607  0.67322  0.44044  1.0000
  C   C101      1.0  0.26356  0.74437  0.30557  1.0000
  C   C102      1.0  0.31813  0.74504  0.30868  1.0000
  C   C103      1.0  0.29912  0.76104  0.28778  1.0000
  C   C104      1.0  0.24340  0.76044  0.30348  1.0000
  C   C105      1.0  0.20800  0.74360  0.28363  1.0000
  C   C106      1.0  0.18884  0.75975  0.30034  1.0000
  N   N15       1.0  0.31485  0.79059  0.24156  1.0000
  N   N16       1.0  0.19258  0.71368  0.23897  1.0000
  H   H95       1.0  0.30195  0.79837  0.20825  1.0000
  H   H96       1.0  0.33829  0.80104  0.22440  1.0000
  H   H97       1.0  0.16935  0.70337  0.21987  1.0000
  H   H98       1.0  0.20574  0.70571  0.20781  1.0000
  H   H99       1.0  0.16492  0.80185  0.31240  1.0000
  H   H100      1.0  0.34182  0.70295  0.32865  1.0000
  C   C107      1.0  0.26165  0.52058  0.33215  1.0000
  C   C108      1.0  0.25816  0.57211  0.36084  1.0000
  C   C109      1.0  0.24477  0.53954  0.32092  1.0000
  C   C110      1.0  0.24534  0.98440  0.33148  1.0000
  C   C111      1.0  0.26217  0.96551  0.31775  1.0000
  C   C112      1.0  0.24891  0.93270  0.35613  1.0000
  N   N17       1.0  0.21685  0.52714  0.26817  1.0000
  N   N18       1.0  0.28990  0.97822  0.26420  1.0000
  H   H101      1.0  0.21098  0.00828  0.22840  1.0000
  H   H102      1.0  0.20462  0.53896  0.25869  1.0000
  H   H103      1.0  0.30199  0.96637  0.25287  1.0000
  H   H104      1.0  0.29555  0.49724  0.22526  1.0000
  H   H105      1.0  0.21347  0.87575  0.45294  1.0000
  H   H106      1.0  0.29366  0.62797  0.46124  1.0000
  C   C113      1.0  0.13504  0.74395  0.23388  1.0000
  H   H107      1.0  0.14670  0.75048  0.17263  1.0000
  C   C114      1.0  0.25989  0.84891  0.31516  1.0000
  C   C115      1.0  0.25489  0.86539  0.24090  1.0000
  C   C116      1.0  0.25646  0.89650  0.25430  1.0000
  H   H108      1.0  0.24857  0.90587  0.20345  1.0000
  C   C117      1.0  0.24432  0.84967  0.15076  1.0000
  H   H109      1.0  0.24545  0.82666  0.14473  1.0000
  H   H110      1.0  0.26087  0.86700  0.09967  1.0000
  H   H111      1.0  0.21869  0.84383  0.13688  1.0000
  C   C118      1.0  0.16078  0.90977  0.35113  1.0000
  C   C119      1.0  0.15232  0.88982  0.27194  1.0000
  C   C120      1.0  0.12102  0.85994  0.26624  1.0000
  H   H112      1.0  0.11666  0.84429  0.21272  1.0000
  C   C121      1.0  0.17550  0.89743  0.19466  1.0000
  H   H113      1.0  0.19826  0.92173  0.20000  1.0000
  H   H114      1.0  0.16298  0.89770  0.13280  1.0000
  H   H115      1.0  0.18257  0.87815  0.18919  1.0000
  C   C122      1.0  0.41522  0.76187  0.33869  1.0000
  C   C123      1.0  0.40086  0.75770  0.25142  1.0000
  C   C124      1.0  0.37117  0.75939  0.24004  1.0000
  H   H116      1.0  0.35902  0.75233  0.17953  1.0000
  C   C125      1.0  0.41278  0.74755  0.17084  1.0000
  H   H117      1.0  0.43622  0.74774  0.18134  1.0000
  H   H118      1.0  0.41686  0.76480  0.11581  1.0000
  H   H119      1.0  0.39389  0.72230  0.15038  1.0000
  C   C126      1.0  0.24691  0.65610  0.32318  1.0000
  C   C127      1.0  0.25220  0.64000  0.24850  1.0000
  C   C128      1.0  0.25073  0.60890  0.26093  1.0000
  H   H120      1.0  0.25857  0.59971  0.20954  1.0000
  C   C129      1.0  0.26287  0.65609  0.15879  1.0000
  H   H121      1.0  0.26155  0.67900  0.15330  1.0000
  H   H122      1.0  0.24652  0.63889  0.10718  1.0000
  H   H123      1.0  0.28859  0.66218  0.14520  1.0000
  C   C130      1.0  0.34635  0.59512  0.35196  1.0000
  C   C131      1.0  0.35450  0.61572  0.27411  1.0000
  C   C132      1.0  0.38580  0.64558  0.26904  1.0000
  H   H124      1.0  0.39003  0.66167  0.21669  1.0000
  C   C133      1.0  0.33109  0.60877  0.19773  1.0000
  H   H125      1.0  0.30833  0.58445  0.20237  1.0000
  H   H126      1.0  0.34341  0.60899  0.13503  1.0000
  H   H127      1.0  0.32406  0.62812  0.19454  1.0000
  C   C134      1.0  0.46830  0.76159  0.33998  1.0000
  C   C135      1.0  0.43390  0.74580  0.36079  1.0000
  C   C136      1.0  0.41679  0.71074  0.37715  1.0000
  H   H128      1.0  0.48090  0.78705  0.34488  1.0000
  N   N19       1.0  0.38681  0.69622  0.42145  1.0000
  N   N20       1.0  0.12148  0.80859  0.41272  1.0000
  H   H129      1.0  0.12985  0.79553  0.44185  1.0000
  H   H130      1.0  0.37915  0.70959  0.45235  1.0000
  C   C137      1.0  0.24825  0.70995  0.33046  1.0000
  C   C138      1.0  0.26531  0.69172  0.32888  1.0000
  C   C139      1.0  0.30094  0.70970  0.32430  1.0000
  H   H131      1.0  0.22337  0.69685  0.34647  1.0000
  N   N21       1.0  0.31799  0.69271  0.33615  1.0000
  C   C140      1.0  0.20588  0.79521  0.31369  1.0000
  C   C141      1.0  0.24147  0.81326  0.32015  1.0000
  C   C142      1.0  0.25848  0.79502  0.32641  1.0000
  N   N22       1.0  0.18863  0.81214  0.32236  1.0000
  H   H132      1.0  0.28320  0.80822  0.34398  1.0000
  H   H133      1.0  0.19936  0.83552  0.33824  1.0000
  H   H134      1.0  0.30699  0.66937  0.35231  1.0000
  C   C143      1.0  0.29642  0.53986  0.35282  1.0000
  C   C144      1.0  0.31218  0.57391  0.37635  1.0000
  C   C145      1.0  0.29181  0.58833  0.39382  1.0000
  H   H135      1.0  0.31104  0.52909  0.35708  1.0000
  N   N23       1.0  0.30625  0.61777  0.44050  1.0000
  C   C146      1.0  0.21539  0.91628  0.39008  1.0000
  C   C147      1.0  0.19500  0.93086  0.37528  1.0000
  C   C148      1.0  0.21067  0.96503  0.35316  1.0000
  N   N24       1.0  0.20106  0.88650  0.43522  1.0000
  H   H136      1.0  0.19606  0.97577  0.35889  1.0000
  H   H137      1.0  0.18051  0.87915  0.46860  1.0000
  H   H138      1.0  0.32720  0.62524  0.47199  1.0000
  C   C149      1.0  0.15313  0.74135  0.30717  1.0000
  C   C150      1.0  0.13769  0.73468  0.39321  1.0000
  C   C151      1.0  0.15436  0.73198  0.47569  1.0000
  H   H139      1.0  0.17718  0.73121  0.46160  1.0000
  H   H140      1.0  0.13738  0.70899  0.51153  1.0000
  H   H141      1.0  0.16081  0.75336  0.51942  1.0000
  C   C152      1.0  0.26343  0.91218  0.33925  1.0000
  C   C153      1.0  0.27419  0.89853  0.40887  1.0000
  C   C154      1.0  0.27206  0.86701  0.39607  1.0000
  H   H142      1.0  0.27503  0.85517  0.45051  1.0000
  C   C155      1.0  0.28404  0.91423  0.49906  1.0000
  H   H143      1.0  0.28524  0.93846  0.50228  1.0000
  H   H144      1.0  0.30883  0.91828  0.51607  1.0000
  H   H145      1.0  0.26619  0.89782  0.54942  1.0000
  C   C156      1.0  0.13603  0.90017  0.41846  1.0000
  H   H146      1.0  0.14236  0.91343  0.47730  1.0000
  C   C157      1.0  0.35389  0.76313  0.31354  1.0000
  C   C158      1.0  0.36990  0.77040  0.39887  1.0000
  C   C159      1.0  0.40072  0.77087  0.40918  1.0000
  H   H147      1.0  0.41011  0.77282  0.47259  1.0000
  C   C160      1.0  0.35401  0.77425  0.48144  1.0000
  H   H148      1.0  0.33125  0.77518  0.46769  1.0000
  H   H149      1.0  0.37145  0.79755  0.51534  1.0000
  H   H150      1.0  0.34765  0.75330  0.52673  1.0000
  C   C161      1.0  0.24380  0.59286  0.34542  1.0000
  C   C162      1.0  0.23315  0.60633  0.41577  1.0000
  C   C163      1.0  0.23509  0.63782  0.40394  1.0000
  H   H151      1.0  0.23208  0.64945  0.45878  1.0000
  C   C164      1.0  0.22333  0.59032  0.50562  1.0000
  H   H152      1.0  0.22233  0.56617  0.50819  1.0000
  H   H153      1.0  0.19846  0.58603  0.52275  1.0000
  H   H154      1.0  0.24108  0.60664  0.55628  1.0000
  C   C165      1.0  0.40969  0.65608  0.33887  1.0000
  C   C166      1.0  0.40268  0.63415  0.41325  1.0000
  C   C167      1.0  0.37131  0.60400  0.41830  1.0000
  H   H155      1.0  0.36516  0.59023  0.47623  1.0000
  C   C168      1.0  0.42545  0.64320  0.49179  1.0000
  H   H156      1.0  0.44938  0.66609  0.48129  1.0000
  H   H157      1.0  0.43079  0.62306  0.50539  1.0000
  H   H158      1.0  0.41349  0.64674  0.55064  1.0000
  C   C169      1.0  0.98544  0.24377  0.31992  1.0000
  C   C170      1.0  0.93128  0.19139  0.34654  1.0000
  C   C171      1.0  0.96419  0.20819  0.30828  1.0000
  C   C172      1.0  0.52172  0.26099  0.31884  1.0000
  C   C173      1.0  0.54289  0.29657  0.30699  1.0000
  C   C174      1.0  0.57613  0.31334  0.34316  1.0000
  N   N25       1.0  0.97419  0.19082  0.25443  1.0000
  N   N26       1.0  0.53254  0.31398  0.25453  1.0000
  H   H159      1.0  0.49317  0.20272  0.21427  1.0000
  H   H160      1.0  0.95978  0.16715  0.24165  1.0000
  H   H161      1.0  0.54674  0.33769  0.24183  1.0000
  H   H162      1.0  0.63273  0.33175  0.43030  1.0000
  H   H163      1.0  0.87607  0.17322  0.44044  1.0000
  C   C175      1.0  0.76356  0.24437  0.30557  1.0000
  C   C176      1.0  0.81813  0.24504  0.30868  1.0000
  C   C177      1.0  0.79911  0.26104  0.28778  1.0000
  C   C178      1.0  0.74340  0.26044  0.30348  1.0000
  C   C179      1.0  0.70800  0.24359  0.28363  1.0000
  C   C180      1.0  0.68884  0.25975  0.30034  1.0000
  N   N27       1.0  0.81485  0.29059  0.24156  1.0000
  N   N28       1.0  0.69258  0.21368  0.23897  1.0000
  H   H164      1.0  0.80195  0.29837  0.20825  1.0000
  H   H165      1.0  0.83828  0.30104  0.22440  1.0000
  H   H166      1.0  0.66935  0.20337  0.21987  1.0000
  H   H167      1.0  0.70574  0.20571  0.20781  1.0000
  H   H168      1.0  0.66492  0.30185  0.31240  1.0000
  H   H169      1.0  0.84181  0.20295  0.32865  1.0000
  C   C181      1.0  0.76165  0.02058  0.33215  1.0000
  C   C182      1.0  0.75816  0.07211  0.36084  1.0000
  C   C183      1.0  0.74477  0.03954  0.32092  1.0000
  C   C184      1.0  0.74534  0.48440  0.33148  1.0000
  C   C185      1.0  0.76216  0.46551  0.31775  1.0000
  C   C186      1.0  0.74891  0.43270  0.35613  1.0000
  N   N29       1.0  0.71685  0.02714  0.26817  1.0000
  N   N30       1.0  0.78990  0.47822  0.26420  1.0000
  H   H170      1.0  0.71098  0.50828  0.22840  1.0000
  H   H171      1.0  0.70462  0.03896  0.25869  1.0000
  H   H172      1.0  0.80199  0.46637  0.25287  1.0000
  H   H173      1.0  0.79555  0.99724  0.22526  1.0000
  H   H174      1.0  0.71347  0.37575  0.45294  1.0000
  H   H175      1.0  0.79366  0.12797  0.46124  1.0000
  C   C187      1.0  0.59169  0.24220  0.33382  1.0000
  C   C188      1.0  0.60529  0.24548  0.24592  1.0000
  C   C189      1.0  0.63504  0.24395  0.23388  1.0000
  H   H176      1.0  0.64669  0.25048  0.17263  1.0000
  C   C190      1.0  0.59257  0.25467  0.16519  1.0000
  H   H177      1.0  0.56905  0.25426  0.17642  1.0000
  H   H178      1.0  0.58828  0.23699  0.11116  1.0000
  H   H179      1.0  0.61109  0.27981  0.14293  1.0000
  C   C191      1.0  0.75989  0.34891  0.31516  1.0000
  C   C192      1.0  0.75489  0.36539  0.24090  1.0000
  C   C193      1.0  0.75646  0.39650  0.25430  1.0000
  H   H180      1.0  0.74857  0.40587  0.20345  1.0000
  C   C194      1.0  0.74432  0.34967  0.15076  1.0000
  H   H181      1.0  0.74545  0.32666  0.14473  1.0000
  H   H182      1.0  0.76087  0.36699  0.09967  1.0000
  H   H183      1.0  0.71869  0.34383  0.13688  1.0000
  C   C195      1.0  0.66078  0.40977  0.35113  1.0000
  C   C196      1.0  0.65232  0.38981  0.27194  1.0000
  C   C197      1.0  0.62102  0.35994  0.26624  1.0000
  H   H184      1.0  0.61666  0.34429  0.21272  1.0000
  C   C198      1.0  0.67550  0.39743  0.19466  1.0000
  H   H185      1.0  0.69826  0.42172  0.20000  1.0000
  H   H186      1.0  0.66298  0.39770  0.13280  1.0000
  H   H187      1.0  0.68257  0.37815  0.18919  1.0000
  C   C199      1.0  0.91522  0.26187  0.33869  1.0000
  C   C200      1.0  0.90086  0.25770  0.25142  1.0000
  C   C201      1.0  0.87117  0.25939  0.24004  1.0000
  H   H188      1.0  0.85902  0.25233  0.17953  1.0000
  C   C202      1.0  0.91278  0.24755  0.17084  1.0000
  H   H189      1.0  0.93622  0.24774  0.18134  1.0000
  H   H190      1.0  0.91686  0.26480  0.11581  1.0000
  H   H191      1.0  0.89389  0.22230  0.15038  1.0000
  C   C203      1.0  0.74691  0.15610  0.32318  1.0000
  C   C204      1.0  0.75220  0.14000  0.24850  1.0000
  C   C205      1.0  0.75073  0.10890  0.26093  1.0000
  H   H192      1.0  0.75857  0.09971  0.20954  1.0000
  C   C206      1.0  0.76287  0.15609  0.15879  1.0000
  H   H193      1.0  0.76155  0.17900  0.15330  1.0000
  H   H194      1.0  0.74652  0.13889  0.10718  1.0000
  H   H195      1.0  0.78859  0.16218  0.14520  1.0000
  C   C207      1.0  0.84635  0.09512  0.35196  1.0000
  C   C208      1.0  0.85449  0.11572  0.27411  1.0000
  C   C209      1.0  0.88580  0.14558  0.26904  1.0000
  H   H196      1.0  0.89003  0.16167  0.21669  1.0000
  C   C210      1.0  0.83110  0.10877  0.19773  1.0000
  H   H197      1.0  0.80833  0.08445  0.20237  1.0000
  H   H198      1.0  0.84341  0.10899  0.13503  1.0000
  H   H199      1.0  0.82406  0.12812  0.19454  1.0000
  C   C211      1.0  0.96830  0.26159  0.33998  1.0000
  C   C212      1.0  0.93390  0.24580  0.36079  1.0000
  C   C213      1.0  0.91679  0.21074  0.37715  1.0000
  H   H200      1.0  0.98090  0.28705  0.34488  1.0000
  N   N31       1.0  0.88681  0.19622  0.42145  1.0000
  C   C214      1.0  0.59092  0.29398  0.37137  1.0000
  C   C215      1.0  0.57354  0.25885  0.35573  1.0000
  C   C216      1.0  0.53896  0.24315  0.33734  1.0000
  N   N32       1.0  0.62148  0.30858  0.41272  1.0000
  H   H201      1.0  0.52629  0.21770  0.34280  1.0000
  H   H202      1.0  0.62985  0.29552  0.44185  1.0000
  H   H203      1.0  0.87914  0.20959  0.45235  1.0000
  C   C217      1.0  0.74825  0.20995  0.33046  1.0000
  C   C218      1.0  0.76531  0.19172  0.32888  1.0000
  C   C219      1.0  0.80094  0.20970  0.32430  1.0000
  H   H204      1.0  0.72336  0.19685  0.34647  1.0000
  N   N33       1.0  0.81799  0.19271  0.33615  1.0000
  C   C220      1.0  0.70587  0.29521  0.31369  1.0000
  C   C221      1.0  0.74147  0.31326  0.32015  1.0000
  C   C222      1.0  0.75848  0.29502  0.32641  1.0000
  N   N34       1.0  0.68863  0.31214  0.32236  1.0000
  H   H205      1.0  0.78320  0.30822  0.34398  1.0000
  H   H206      1.0  0.69936  0.33552  0.33824  1.0000
  H   H207      1.0  0.80699  0.16937  0.35231  1.0000
  C   C223      1.0  0.79642  0.03986  0.35282  1.0000
  C   C224      1.0  0.81218  0.07391  0.37635  1.0000
  C   C225      1.0  0.79181  0.08833  0.39382  1.0000
  H   H208      1.0  0.81104  0.02908  0.35708  1.0000
  N   N35       1.0  0.80625  0.11777  0.44050  1.0000
  C   C226      1.0  0.71539  0.41628  0.39008  1.0000
  C   C227      1.0  0.69500  0.43086  0.37528  1.0000
  C   C228      1.0  0.71067  0.46503  0.35316  1.0000
  N   N36       1.0  0.70106  0.38650  0.43522  1.0000
  H   H209      1.0  0.69606  0.47577  0.35889  1.0000
  H   H210      1.0  0.68051  0.37915  0.46860  1.0000
  H   H211      1.0  0.82720  0.12524  0.47199  1.0000
  C   C229      1.0  0.65314  0.24135  0.30717  1.0000
  C   C230      1.0  0.63769  0.23468  0.39321  1.0000
  C   C231      1.0  0.60674  0.23391  0.40435  1.0000
  H   H212      1.0  0.59786  0.23257  0.46812  1.0000
  C   C232      1.0  0.65436  0.23198  0.47569  1.0000
  H   H213      1.0  0.67718  0.23121  0.46160  1.0000
  H   H214      1.0  0.63738  0.20899  0.51153  1.0000
  H   H215      1.0  0.66080  0.25336  0.51942  1.0000
  C   C233      1.0  0.76343  0.41218  0.33925  1.0000
  C   C234      1.0  0.77419  0.39853  0.40887  1.0000
  C   C235      1.0  0.77206  0.36700  0.39607  1.0000
  H   H216      1.0  0.77503  0.35517  0.45051  1.0000
  C   C236      1.0  0.78404  0.41423  0.49906  1.0000
  H   H217      1.0  0.78524  0.43846  0.50228  1.0000
  H   H218      1.0  0.80883  0.41828  0.51607  1.0000
  H   H219      1.0  0.76619  0.39782  0.54942  1.0000
  C   C237      1.0  0.59741  0.34875  0.33685  1.0000
  C   C238      1.0  0.60470  0.37002  0.41287  1.0000
  C   C239      1.0  0.63603  0.40018  0.41846  1.0000
  H   H220      1.0  0.64236  0.41342  0.47730  1.0000
  C   C240      1.0  0.58231  0.36018  0.49245  1.0000
  H   H221      1.0  0.55835  0.33738  0.48156  1.0000
  H   H222      1.0  0.57700  0.38014  0.50885  1.0000
  H   H223      1.0  0.59458  0.35611  0.54973  1.0000
  C   C241      1.0  0.85389  0.26312  0.31354  1.0000
  C   C242      1.0  0.86990  0.27040  0.39887  1.0000
  C   C243      1.0  0.90072  0.27087  0.40918  1.0000
  H   H224      1.0  0.91011  0.27282  0.47259  1.0000
  C   C244      1.0  0.85400  0.27425  0.48144  1.0000
  H   H225      1.0  0.83125  0.27518  0.46769  1.0000
  H   H226      1.0  0.87145  0.29755  0.51534  1.0000
  H   H227      1.0  0.84765  0.25330  0.52673  1.0000
  C   C245      1.0  0.74380  0.09286  0.34542  1.0000
  C   C246      1.0  0.73314  0.10633  0.41577  1.0000
  C   C247      1.0  0.73510  0.13782  0.40394  1.0000
  H   H228      1.0  0.73208  0.14945  0.45878  1.0000
  C   C248      1.0  0.72333  0.09032  0.50562  1.0000
  H   H229      1.0  0.72232  0.06617  0.50819  1.0000
  H   H230      1.0  0.69846  0.08603  0.52275  1.0000
  H   H231      1.0  0.74108  0.10664  0.55628  1.0000
  C   C249      1.0  0.90968  0.15608  0.33887  1.0000
  C   C250      1.0  0.90267  0.13415  0.41325  1.0000
  C   C251      1.0  0.87131  0.10400  0.41830  1.0000
  H   H232      1.0  0.86516  0.09023  0.47623  1.0000
  C   C252      1.0  0.92545  0.14320  0.49179  1.0000
  H   H233      1.0  0.94937  0.16609  0.48129  1.0000
  H   H234      1.0  0.93079  0.12306  0.50539  1.0000
  H   H235      1.0  0.91349  0.14674  0.55064  1.0000
  C   C253      1.0  0.98544  0.74377  0.31992  1.0000
  C   C254      1.0  0.93128  0.69139  0.34654  1.0000
  C   C255      1.0  0.96420  0.70819  0.30828  1.0000
  C   C256      1.0  0.52172  0.76099  0.31884  1.0000
  C   C257      1.0  0.54289  0.79657  0.30699  1.0000
  C   C258      1.0  0.57613  0.81334  0.34316  1.0000
  N   N37       1.0  0.97419  0.69081  0.25443  1.0000
  N   N38       1.0  0.53254  0.81398  0.25453  1.0000
  H   H236      1.0  0.49317  0.70272  0.21427  1.0000
  H   H237      1.0  0.95978  0.66715  0.24165  1.0000
  H   H238      1.0  0.54674  0.83769  0.24183  1.0000
  H   H239      1.0  0.63273  0.83175  0.43030  1.0000
  H   H240      1.0  0.87607  0.67322  0.44044  1.0000
  C   C259      1.0  0.76356  0.74437  0.30557  1.0000
  C   C260      1.0  0.81813  0.74504  0.30868  1.0000
  C   C261      1.0  0.79912  0.76104  0.28778  1.0000
  C   C262      1.0  0.74340  0.76044  0.30348  1.0000
  C   C263      1.0  0.70800  0.74360  0.28363  1.0000
  C   C264      1.0  0.68884  0.75975  0.30034  1.0000
  N   N39       1.0  0.81485  0.79059  0.24156  1.0000
  N   N40       1.0  0.69258  0.71368  0.23897  1.0000
  H   H241      1.0  0.80195  0.79837  0.20825  1.0000
  H   H242      1.0  0.83828  0.80104  0.22440  1.0000
  H   H243      1.0  0.66935  0.70337  0.21987  1.0000
  H   H244      1.0  0.70574  0.70571  0.20781  1.0000
  H   H245      1.0  0.66492  0.80185  0.31240  1.0000
  H   H246      1.0  0.84181  0.70295  0.32865  1.0000
  C   C265      1.0  0.76165  0.52058  0.33215  1.0000
  C   C266      1.0  0.75816  0.57211  0.36084  1.0000
  C   C267      1.0  0.74477  0.53954  0.32092  1.0000
  C   C268      1.0  0.74534  0.98440  0.33148  1.0000
  C   C269      1.0  0.76217  0.96551  0.31775  1.0000
  C   C270      1.0  0.74891  0.93270  0.35613  1.0000
  N   N41       1.0  0.71685  0.52714  0.26817  1.0000
  N   N42       1.0  0.78990  0.97822  0.26420  1.0000
  H   H247      1.0  0.71098  0.00828  0.22840  1.0000
  H   H248      1.0  0.70462  0.53896  0.25869  1.0000
  H   H249      1.0  0.80199  0.96637  0.25287  1.0000
  H   H250      1.0  0.79555  0.49724  0.22526  1.0000
  H   H251      1.0  0.71347  0.87575  0.45294  1.0000
  H   H252      1.0  0.79366  0.62797  0.46124  1.0000
  C   C271      1.0  0.59169  0.74220  0.33382  1.0000
  C   C272      1.0  0.60529  0.74548  0.24592  1.0000
  C   C273      1.0  0.63504  0.74395  0.23388  1.0000
  H   H253      1.0  0.64670  0.75048  0.17263  1.0000
  C   C274      1.0  0.59257  0.75467  0.16519  1.0000
  H   H254      1.0  0.56905  0.75426  0.17642  1.0000
  H   H255      1.0  0.58828  0.73699  0.11116  1.0000
  H   H256      1.0  0.61109  0.77981  0.14293  1.0000
  C   C275      1.0  0.75989  0.84891  0.31516  1.0000
  C   C276      1.0  0.75489  0.86539  0.24090  1.0000
  C   C277      1.0  0.75646  0.89650  0.25430  1.0000
  H   H257      1.0  0.74857  0.90587  0.20345  1.0000
  C   C278      1.0  0.74432  0.84967  0.15076  1.0000
  H   H258      1.0  0.74545  0.82666  0.14473  1.0000
  H   H259      1.0  0.76087  0.86700  0.09967  1.0000
  H   H260      1.0  0.71869  0.84383  0.13688  1.0000
  C   C279      1.0  0.66078  0.90977  0.35113  1.0000
  C   C280      1.0  0.65232  0.88982  0.27194  1.0000
  C   C281      1.0  0.62102  0.85994  0.26624  1.0000
  H   H261      1.0  0.61666  0.84429  0.21272  1.0000
  C   C282      1.0  0.67550  0.89743  0.19466  1.0000
  H   H262      1.0  0.69826  0.92173  0.20000  1.0000
  H   H263      1.0  0.66298  0.89770  0.13280  1.0000
  H   H264      1.0  0.68257  0.87815  0.18919  1.0000
  C   C283      1.0  0.91522  0.76187  0.33869  1.0000
  C   C284      1.0  0.90086  0.75770  0.25142  1.0000
  C   C285      1.0  0.87117  0.75939  0.24004  1.0000
  H   H265      1.0  0.85903  0.75233  0.17953  1.0000
  C   C286      1.0  0.91278  0.74755  0.17084  1.0000
  H   H266      1.0  0.93622  0.74774  0.18134  1.0000
  H   H267      1.0  0.91686  0.76480  0.11581  1.0000
  H   H268      1.0  0.89389  0.72230  0.15038  1.0000
  C   C287      1.0  0.74691  0.65610  0.32318  1.0000
  C   C288      1.0  0.75220  0.64000  0.24850  1.0000
  C   C289      1.0  0.75073  0.60890  0.26093  1.0000
  H   H269      1.0  0.75857  0.59971  0.20954  1.0000
  C   C290      1.0  0.76287  0.65609  0.15879  1.0000
  H   H270      1.0  0.76155  0.67900  0.15330  1.0000
  H   H271      1.0  0.74652  0.63889  0.10718  1.0000
  H   H272      1.0  0.78859  0.66218  0.14520  1.0000
  C   C291      1.0  0.84635  0.59512  0.35196  1.0000
  C   C292      1.0  0.85449  0.61572  0.27411  1.0000
  C   C293      1.0  0.88580  0.64558  0.26904  1.0000
  H   H273      1.0  0.89003  0.66167  0.21669  1.0000
  C   C294      1.0  0.83110  0.60877  0.19773  1.0000
  H   H274      1.0  0.80833  0.58445  0.20237  1.0000
  H   H275      1.0  0.84341  0.60899  0.13503  1.0000
  H   H276      1.0  0.82406  0.62812  0.19454  1.0000
  C   C295      1.0  0.96830  0.76159  0.33998  1.0000
  C   C296      1.0  0.93390  0.74580  0.36079  1.0000
  C   C297      1.0  0.91679  0.71074  0.37715  1.0000
  H   H277      1.0  0.98090  0.78705  0.34488  1.0000
  N   N43       1.0  0.88681  0.69622  0.42145  1.0000
  C   C298      1.0  0.59092  0.79398  0.37137  1.0000
  C   C299      1.0  0.57354  0.75885  0.35573  1.0000
  C   C300      1.0  0.53896  0.74315  0.33734  1.0000
  N   N44       1.0  0.62148  0.80859  0.41272  1.0000
  H   H278      1.0  0.52629  0.71770  0.34280  1.0000
  H   H279      1.0  0.62985  0.79553  0.44185  1.0000
  H   H280      1.0  0.87914  0.70959  0.45235  1.0000
  C   C301      1.0  0.74825  0.70995  0.33046  1.0000
  C   C302      1.0  0.76531  0.69172  0.32888  1.0000
  C   C303      1.0  0.80094  0.70970  0.32430  1.0000
  H   H281      1.0  0.72336  0.69685  0.34647  1.0000
  N   N45       1.0  0.81799  0.69271  0.33615  1.0000
  C   C304      1.0  0.70587  0.79521  0.31369  1.0000
  C   C305      1.0  0.74147  0.81326  0.32015  1.0000
  C   C306      1.0  0.75848  0.79502  0.32641  1.0000
  N   N46       1.0  0.68863  0.81214  0.32236  1.0000
  H   H282      1.0  0.78320  0.80822  0.34398  1.0000
  H   H283      1.0  0.69936  0.83552  0.33824  1.0000
  H   H284      1.0  0.80699  0.66937  0.35231  1.0000
  C   C307      1.0  0.79642  0.53986  0.35282  1.0000
  C   C308      1.0  0.81218  0.57391  0.37635  1.0000
  C   C309      1.0  0.79181  0.58833  0.39382  1.0000
  H   H285      1.0  0.81104  0.52909  0.35708  1.0000
  N   N47       1.0  0.80625  0.61777  0.44050  1.0000
  C   C310      1.0  0.71539  0.91628  0.39008  1.0000
  C   C311      1.0  0.69500  0.93086  0.37528  1.0000
  C   C312      1.0  0.71067  0.96503  0.35316  1.0000
  N   N48       1.0  0.70106  0.88650  0.43522  1.0000
  H   H286      1.0  0.69606  0.97577  0.35889  1.0000
  H   H287      1.0  0.68051  0.87915  0.46860  1.0000
  H   H288      1.0  0.82720  0.62524  0.47199  1.0000
  C   C313      1.0  0.65313  0.74135  0.30717  1.0000
  C   C314      1.0  0.63769  0.73468  0.39321  1.0000
  C   C315      1.0  0.60674  0.73391  0.40435  1.0000
  H   H289      1.0  0.59786  0.73257  0.46812  1.0000
  C   C316      1.0  0.65436  0.73198  0.47569  1.0000
  H   H290      1.0  0.67718  0.73121  0.46160  1.0000
  H   H291      1.0  0.63738  0.70899  0.51153  1.0000
  H   H292      1.0  0.66080  0.75336  0.51942  1.0000
  C   C317      1.0  0.76343  0.91218  0.33925  1.0000
  C   C318      1.0  0.77419  0.89853  0.40887  1.0000
  C   C319      1.0  0.77206  0.86701  0.39607  1.0000
  H   H293      1.0  0.77503  0.85517  0.45051  1.0000
  C   C320      1.0  0.78404  0.91423  0.49906  1.0000
  H   H294      1.0  0.78524  0.93846  0.50228  1.0000
  H   H295      1.0  0.80883  0.91828  0.51607  1.0000
  H   H296      1.0  0.76619  0.89782  0.54942  1.0000
  C   C321      1.0  0.59741  0.84875  0.33685  1.0000
  C   C322      1.0  0.60470  0.87002  0.41287  1.0000
  C   C323      1.0  0.63603  0.90017  0.41846  1.0000
  H   H297      1.0  0.64236  0.91343  0.47730  1.0000
  C   C324      1.0  0.58231  0.86018  0.49245  1.0000
  H   H298      1.0  0.55835  0.83738  0.48156  1.0000
  H   H299      1.0  0.57700  0.88014  0.50885  1.0000
  H   H300      1.0  0.59458  0.85611  0.54973  1.0000
  C   C325      1.0  0.85389  0.76313  0.31354  1.0000
  C   C326      1.0  0.86990  0.77040  0.39887  1.0000
  C   C327      1.0  0.90072  0.77087  0.40918  1.0000
  H   H301      1.0  0.91011  0.77282  0.47259  1.0000
  C   C328      1.0  0.85400  0.77425  0.48144  1.0000
  H   H302      1.0  0.83125  0.77518  0.46769  1.0000
  H   H303      1.0  0.87145  0.79755  0.51534  1.0000
  H   H304      1.0  0.84765  0.75330  0.52673  1.0000
  C   C329      1.0  0.74380  0.59286  0.34542  1.0000
  C   C330      1.0  0.73315  0.60633  0.41577  1.0000
  C   C331      1.0  0.73510  0.63782  0.40394  1.0000
  H   H305      1.0  0.73208  0.64945  0.45878  1.0000
  C   C332      1.0  0.72333  0.59032  0.50562  1.0000
  H   H306      1.0  0.72232  0.56617  0.50819  1.0000
  H   H307      1.0  0.69846  0.58603  0.52275  1.0000
  H   H308      1.0  0.74108  0.60664  0.55628  1.0000
  C   C333      1.0  0.90969  0.65608  0.33887  1.0000
  C   C334      1.0  0.90267  0.63415  0.41325  1.0000
  C   C335      1.0  0.87131  0.60400  0.41830  1.0000
  H   H309      1.0  0.86516  0.59023  0.47623  1.0000
  C   C336      1.0  0.92545  0.64320  0.49179  1.0000
  H   H310      1.0  0.94938  0.66609  0.48129  1.0000
  H   H311      1.0  0.93079  0.62306  0.50539  1.0000
  H   H312      1.0  0.91349  0.64674  0.55064  1.0000
