data_image0
_chemical_formula_structural       NC3O2HNC3O2HNC3O2HCNC2O2HCNC2O2HCNC2O2HNC3O2HNC3O2HNC3O2HNC3O2HNC3O2HNC3O2HCNC2O2HCNC2O2HCNC2O2HCNC2O2HCNC2O2HCNC2O2HNC3O2HNC3O2HNC3O2HNC3O2HNC3O2HNC3O2HC6H3C6H3C6H3C6H3C6H3C6H3C6H3C6H3C6H3C6H3C6H3C6H3C6H3C6H3C6H3C6H3CNC2O2HCNC2O2HCNC2O2HNC3O2HNC3O2HNC3O2HCNC2O2HCNC2O2HCNC2O2HCNC2O2HCNC2O2HCNC2O2HNC3O2HNC3O2HNC3O2HNC3O2HNC3O2HNC3O2HCNC2O2HCNC2O2HCNC2O2HCNC2O2HCNC2O2HCNC2O2H
_chemical_formula_sum              "N48 C240 O96 H96"
_cell_length_a       42.0068
_cell_length_b       42.0068
_cell_length_c       14.8749
_cell_angle_alpha    90
_cell_angle_beta     90
_cell_angle_gamma    120

_space_group_name_H-M_alt    "P 1"
_space_group_IT_number       1

loop_
  _space_group_symop_operation_xyz
  'x, y, z'

loop_
  _atom_site_type_symbol
  _atom_site_label
  _atom_site_symmetry_multiplicity
  _atom_site_fract_x
  _atom_site_fract_y
  _atom_site_fract_z
  _atom_site_occupancy
  N   N1        1.0  0.98453  0.07885  0.29126  1.0000
  C   C1        1.0  0.98157  0.10978  0.28489  1.0000
  C   C2        1.0  0.00625  0.14151  0.33528  1.0000
  C   C3        1.0  0.95606  0.10906  0.22451  1.0000
  O   O1        1.0  0.92567  0.08150  0.22100  1.0000
  O   O2        1.0  0.96544  0.12798  0.15544  1.0000
  H   H1        1.0  0.98763  0.14699  0.14529  1.0000
  N   N2        1.0  0.93164  0.90772  0.29116  1.0000
  C   C4        1.0  0.90071  0.87383  0.28478  1.0000
  C   C5        1.0  0.86898  0.86675  0.33524  1.0000
  C   C6        1.0  0.90143  0.84905  0.22436  1.0000
  O   O3        1.0  0.92899  0.84623  0.22083  1.0000
  O   O4        1.0  0.88250  0.83951  0.15530  1.0000
  H   H2        1.0  0.86350  0.84270  0.14517  1.0000
  N   N3        1.0  0.10272  0.02588  0.29099  1.0000
  C   C7        1.0  0.13661  0.02883  0.28457  1.0000
  C   C8        1.0  0.14369  0.00419  0.33506  1.0000
  C   C9        1.0  0.16134  0.05426  0.22388  1.0000
  O   O5        1.0  0.16442  0.08476  0.22118  1.0000
  O   O6        1.0  0.17075  0.04471  0.15489  1.0000
  H   H3        1.0  0.16738  0.02244  0.14479  1.0000
  C   C10       1.0  0.13123  0.35402  0.35483  1.0000
  N   N4        1.0  0.09644  0.29491  0.28560  1.0000
  C   C11       1.0  0.12442  0.33052  0.27999  1.0000
  C   C12       1.0  0.14259  0.34323  0.19898  1.0000
  O   O7        1.0  0.12404  0.34178  0.13416  1.0000
  O   O8        1.0  0.16929  0.33966  0.18016  1.0000
  H   H4        1.0  0.18377  0.33756  0.22014  1.0000
  C   C13       1.0  0.65646  0.77922  0.35520  1.0000
  N   N5        1.0  0.71578  0.80421  0.28660  1.0000
  C   C14       1.0  0.68019  0.79667  0.28115  1.0000
  C   C15       1.0  0.66769  0.80293  0.20069  1.0000
  O   O9        1.0  0.66802  0.78516  0.13604  1.0000
  O   O10       1.0  0.67285  0.83388  0.18285  1.0000
  H   H5        1.0  0.67545  0.85049  0.22334  1.0000
  C   C16       1.0  0.23133  0.87931  0.35520  1.0000
  N   N6        1.0  0.20596  0.91339  0.28705  1.0000
  C   C17       1.0  0.21349  0.88534  0.28159  1.0000
  C   C18       1.0  0.20680  0.86625  0.20158  1.0000
  O   O11       1.0  0.22467  0.88427  0.13688  1.0000
  O   O12       1.0  0.17569  0.84103  0.18299  1.0000
  H   H6        1.0  0.15888  0.82717  0.22326  1.0000
  N   N7        1.0  0.33257  0.12514  0.28893  1.0000
  C   C19       1.0  0.29589  0.09959  0.28628  1.0000
  C   C20       1.0  0.28251  0.06879  0.34476  1.0000
  C   C21       1.0  0.27444  0.10310  0.22056  1.0000
  O   O13       1.0  0.27755  0.13338  0.21026  1.0000
  O   O14       1.0  0.26446  0.08321  0.15312  1.0000
  H   H7        1.0  0.26388  0.06190  0.14840  1.0000
  N   N8        1.0  0.80098  0.67788  0.28919  1.0000
  C   C22       1.0  0.81211  0.71456  0.28653  1.0000
  C   C23       1.0  0.79467  0.72793  0.34498  1.0000
  C   C24       1.0  0.83711  0.73601  0.22098  1.0000
  O   O15       1.0  0.86410  0.73265  0.20962  1.0000
  O   O16       1.0  0.82746  0.74629  0.15363  1.0000
  H   H8        1.0  0.80682  0.74705  0.14890  1.0000
  N   N9        1.0  0.88546  0.20960  0.28925  1.0000
  C   C25       1.0  0.91100  0.19846  0.28667  1.0000
  C   C26       1.0  0.94177  0.21584  0.34527  1.0000
  C   C27       1.0  0.90748  0.17347  0.22111  1.0000
  O   O17       1.0  0.87713  0.14649  0.20969  1.0000
  O   O18       1.0  0.92742  0.18315  0.15376  1.0000
  H   H9        1.0  0.94881  0.20379  0.14906  1.0000
  N   N10       1.0  0.31689  0.46824  0.29956  1.0000
  C   C28       1.0  0.27956  0.44860  0.29664  1.0000
  C   C29       1.0  0.26014  0.45878  0.35715  1.0000
  C   C30       1.0  0.26299  0.42167  0.23125  1.0000
  O   O19       1.0  0.27520  0.40106  0.21822  1.0000
  O   O20       1.0  0.24729  0.42577  0.16566  1.0000
  H   H10       1.0  0.23978  0.44204  0.16213  1.0000
  N   N11       1.0  0.54236  0.85082  0.29996  1.0000
  C   C31       1.0  0.56201  0.83313  0.29705  1.0000
  C   C32       1.0  0.55175  0.80345  0.35735  1.0000
  C   C33       1.0  0.58896  0.84351  0.23161  1.0000
  O   O21       1.0  0.60981  0.87636  0.21982  1.0000
  O   O22       1.0  0.58471  0.82373  0.16592  1.0000
  H   H11       1.0  0.56830  0.79999  0.16221  1.0000
  N   N12       1.0  0.15982  0.69362  0.29928  1.0000
  C   C34       1.0  0.17752  0.73096  0.29637  1.0000
  C   C35       1.0  0.20713  0.75036  0.35686  1.0000
  C   C36       1.0  0.16716  0.74754  0.23102  1.0000
  O   O23       1.0  0.13434  0.73532  0.21797  1.0000
  O   O24       1.0  0.18697  0.76334  0.16554  1.0000
  H   H12       1.0  0.21075  0.77085  0.16201  1.0000
  C   C37       1.0  0.49683  0.33259  0.32417  1.0000
  N   N13       1.0  0.48819  0.27586  0.26901  1.0000
  C   C38       1.0  0.50740  0.31315  0.26474  1.0000
  C   C39       1.0  0.53486  0.32964  0.20043  1.0000
  O   O25       1.0  0.52925  0.34571  0.13948  1.0000
  O   O26       1.0  0.55549  0.31757  0.18137  1.0000
  H   H13       1.0  0.56118  0.30471  0.21860  1.0000
  C   C40       1.0  0.84420  0.51367  0.32414  1.0000
  N   N14       1.0  0.79612  0.52229  0.26882  1.0000
  C   C41       1.0  0.81424  0.50312  0.26455  1.0000
  C   C42       1.0  0.80332  0.47564  0.20037  1.0000
  O   O27       1.0  0.82505  0.48187  0.13908  1.0000
  O   O28       1.0  0.77076  0.45537  0.17973  1.0000
  H   H14       1.0  0.75203  0.44941  0.21654  1.0000
  C   C43       1.0  0.67801  0.16641  0.32442  1.0000
  N   N15       1.0  0.73468  0.21442  0.26884  1.0000
  C   C44       1.0  0.69739  0.19631  0.26465  1.0000
  C   C45       1.0  0.68083  0.20722  0.20044  1.0000
  O   O29       1.0  0.66376  0.18525  0.14073  1.0000
  O   O30       1.0  0.69325  0.23978  0.17918  1.0000
  H   H15       1.0  0.70686  0.25868  0.21486  1.0000
  C   C46       1.0  0.15922  0.48408  0.35754  1.0000
  N   N16       1.0  0.12894  0.51419  0.29771  1.0000
  C   C47       1.0  0.13385  0.48460  0.29560  1.0000
  C   C48       1.0  0.11540  0.45813  0.23011  1.0000
  O   O31       1.0  0.13424  0.45499  0.17208  1.0000
  O   O32       1.0  0.08394  0.44931  0.20535  1.0000
  H   H16       1.0  0.06753  0.45105  0.23924  1.0000
  C   C49       1.0  0.52637  0.67722  0.35792  1.0000
  N   N17       1.0  0.49626  0.61683  0.29805  1.0000
  C   C50       1.0  0.52584  0.65133  0.29596  1.0000
  C   C51       1.0  0.55235  0.65935  0.23048  1.0000
  O   O33       1.0  0.55515  0.68111  0.17221  1.0000
  O   O34       1.0  0.56140  0.63675  0.20695  1.0000
  H   H17       1.0  0.55991  0.61891  0.24166  1.0000
  C   C52       1.0  0.33336  0.85127  0.35803  1.0000
  N   N18       1.0  0.39378  0.88162  0.29838  1.0000
  C   C53       1.0  0.35927  0.87668  0.29618  1.0000
  C   C54       1.0  0.35128  0.89525  0.23095  1.0000
  O   O35       1.0  0.32999  0.87607  0.17210  1.0000
  O   O36       1.0  0.37394  0.92667  0.20629  1.0000
  H   H18       1.0  0.39175  0.94319  0.24076  1.0000
  N   N19       1.0  0.51889  0.17591  0.27664  1.0000
  C   C55       1.0  0.54875  0.17134  0.27281  1.0000
  C   C56       1.0  0.54936  0.14501  0.33128  1.0000
  C   C57       1.0  0.57533  0.19061  0.20810  1.0000
  O   O37       1.0  0.58561  0.22324  0.19850  1.0000
  O   O38       1.0  0.57836  0.17509  0.14071  1.0000
  H   H19       1.0  0.56938  0.15108  0.13535  1.0000
  N   N20       1.0  0.66534  0.49198  0.27469  1.0000
  C   C58       1.0  0.63091  0.46230  0.27050  1.0000
  C   C59       1.0  0.60410  0.46116  0.33036  1.0000
  C   C60       1.0  0.62459  0.43690  0.20375  1.0000
  O   O39       1.0  0.63316  0.41371  0.22067  1.0000
  O   O40       1.0  0.59993  0.42766  0.14730  1.0000
  H   H20       1.0  0.59030  0.44135  0.13109  1.0000
  N   N21       1.0  0.83517  0.34522  0.27459  1.0000
  C   C61       1.0  0.83991  0.37965  0.27042  1.0000
  C   C62       1.0  0.86557  0.40645  0.33031  1.0000
  C   C63       1.0  0.82082  0.38596  0.20369  1.0000
  O   O41       1.0  0.78904  0.37732  0.22059  1.0000
  O   O42       1.0  0.83622  0.41067  0.14734  1.0000
  H   H21       1.0  0.85954  0.42034  0.13115  1.0000
  N   N22       1.0  0.98667  0.52443  0.25901  1.0000
  C   C64       1.0  0.02371  0.54127  0.25219  1.0000
  C   C65       1.0  0.04449  0.56703  0.32014  1.0000
  C   C66       1.0  0.03885  0.53173  0.18126  1.0000
  O   O43       1.0  0.02316  0.49989  0.15495  1.0000
  O   O44       1.0  0.05984  0.55456  0.12592  1.0000
  H   H22       1.0  0.07058  0.57872  0.13226  1.0000
  N   N23       1.0  0.48620  0.46444  0.25941  1.0000
  C   C67       1.0  0.46938  0.48466  0.25272  1.0000
  C   C68       1.0  0.44357  0.47960  0.32063  1.0000
  C   C69       1.0  0.47901  0.50943  0.18192  1.0000
  O   O45       1.0  0.51102  0.52598  0.15692  1.0000
  O   O46       1.0  0.45622  0.50765  0.12657  1.0000
  H   H23       1.0  0.43206  0.49404  0.13250  1.0000
  N   N24       1.0  0.54627  0.02393  0.26002  1.0000
  C   C70       1.0  0.52604  0.98689  0.25326  1.0000
  C   C71       1.0  0.53103  0.96613  0.32126  1.0000
  C   C72       1.0  0.50133  0.97176  0.18240  1.0000
  O   O47       1.0  0.48516  0.98745  0.15620  1.0000
  O   O48       1.0  0.50318  0.95080  0.12695  1.0000
  H   H24       1.0  0.51661  0.94007  0.13320  1.0000
  C   C73       1.0  0.00803  0.03942  0.34121  1.0000
  C   C74       1.0  0.04041  0.03659  0.34016  1.0000
  C   C75       1.0  0.03985  0.00245  0.34118  1.0000
  C   C76       1.0  0.00464  0.97007  0.34016  1.0000
  C   C77       1.0  0.97106  0.97063  0.34119  1.0000
  C   C78       1.0  0.97389  0.00584  0.34019  1.0000
  H   H25       1.0  0.00334  0.94510  0.33840  1.0000
  H   H26       1.0  0.95022  0.00714  0.33841  1.0000
  H   H27       1.0  0.06538  0.06026  0.33838  1.0000
  C   C79       1.0  0.04226  0.24472  0.35075  1.0000
  C   C80       1.0  0.00881  0.24496  0.34888  1.0000
  C   C81       1.0  0.97422  0.21242  0.34395  1.0000
  C   C82       1.0  0.97404  0.17855  0.33941  1.0000
  C   C83       1.0  0.00690  0.17644  0.33850  1.0000
  C   C84       1.0  0.04081  0.21032  0.34476  1.0000
  H   H28       1.0  0.94918  0.15479  0.34083  1.0000
  H   H29       1.0  0.06505  0.21005  0.34568  1.0000
  H   H30       1.0  0.00979  0.26987  0.35090  1.0000
  C   C85       1.0  0.76578  0.79951  0.35083  1.0000
  C   C86       1.0  0.76557  0.76584  0.34866  1.0000
  C   C87       1.0  0.79811  0.76381  0.34371  1.0000
  C   C88       1.0  0.83198  0.79750  0.33924  1.0000
  C   C89       1.0  0.83405  0.83246  0.33845  1.0000
  C   C90       1.0  0.80017  0.83248  0.34484  1.0000
  H   H31       1.0  0.85574  0.79642  0.34062  1.0000
  H   H32       1.0  0.80043  0.85698  0.34591  1.0000
  H   H33       1.0  0.74068  0.74189  0.35054  1.0000
  C   C91       1.0  0.21100  0.96830  0.35078  1.0000
  C   C92       1.0  0.24465  0.00178  0.34845  1.0000
  C   C93       1.0  0.24665  0.03634  0.34343  1.0000
  C   C94       1.0  0.21293  0.03647  0.33897  1.0000
  C   C95       1.0  0.17799  0.00357  0.33824  1.0000
  C   C96       1.0  0.17801  0.96969  0.34477  1.0000
  H   H34       1.0  0.21401  0.06131  0.34026  1.0000
  H   H35       1.0  0.15352  0.94543  0.34595  1.0000
  H   H36       1.0  0.26861  0.00086  0.35030  1.0000
  C   C97       1.0  0.17001  0.45682  0.36029  1.0000
  C   C98       1.0  0.20792  0.46877  0.36074  1.0000
  C   C99       1.0  0.22129  0.44392  0.35847  1.0000
  C   C100      1.0  0.19544  0.40577  0.35578  1.0000
  C   C101      1.0  0.15712  0.39254  0.35643  1.0000
  C   C102      1.0  0.14488  0.41845  0.35942  1.0000
  H   H37       1.0  0.20462  0.38731  0.35600  1.0000
  H   H38       1.0  0.11723  0.40923  0.36025  1.0000
  H   H39       1.0  0.22637  0.49647  0.35872  1.0000
  C   C103      1.0  0.55365  0.71526  0.36064  1.0000
  C   C104      1.0  0.54172  0.74123  0.36092  1.0000
  C   C105      1.0  0.56658  0.77944  0.35862  1.0000
  C   C106      1.0  0.60474  0.79173  0.35593  1.0000
  C   C107      1.0  0.61795  0.76662  0.35671  1.0000
  C   C108      1.0  0.59201  0.72847  0.35984  1.0000
  H   H40       1.0  0.62321  0.81936  0.35608  1.0000
  H   H41       1.0  0.60121  0.71003  0.36076  1.0000
  H   H42       1.0  0.51402  0.73199  0.35895  1.0000
  C   C109      1.0  0.29530  0.84047  0.36061  1.0000
  C   C110      1.0  0.26935  0.80257  0.36072  1.0000
  C   C111      1.0  0.23113  0.78921  0.35825  1.0000
  C   C112      1.0  0.21883  0.81506  0.35561  1.0000
  C   C113      1.0  0.24393  0.85339  0.35662  1.0000
  C   C114      1.0  0.28207  0.86560  0.35992  1.0000
  H   H43       1.0  0.19120  0.80589  0.35564  1.0000
  H   H44       1.0  0.30051  0.89325  0.36100  1.0000
  H   H45       1.0  0.27860  0.78412  0.35872  1.0000
  C   C115      1.0  0.46127  0.16714  0.33002  1.0000
  C   C116      1.0  0.47168  0.20460  0.32620  1.0000
  C   C117      1.0  0.44566  0.21654  0.32619  1.0000
  C   C118      1.0  0.40781  0.18957  0.33077  1.0000
  C   C119      1.0  0.39597  0.15153  0.33629  1.0000
  C   C120      1.0  0.42326  0.14103  0.33343  1.0000
  H   H46       1.0  0.38859  0.19776  0.33130  1.0000
  H   H47       1.0  0.41529  0.11368  0.33274  1.0000
  H   H48       1.0  0.49917  0.22384  0.32683  1.0000
  C   C121      1.0  0.71427  0.54919  0.32964  1.0000
  C   C122      1.0  0.74131  0.53876  0.32574  1.0000
  C   C123      1.0  0.77928  0.56479  0.32599  1.0000
  C   C124      1.0  0.79014  0.60263  0.33077  1.0000
  C   C125      1.0  0.76394  0.61447  0.33638  1.0000
  C   C126      1.0  0.72615  0.58718  0.33346  1.0000
  H   H49       1.0  0.81754  0.62185  0.33140  1.0000
  H   H50       1.0  0.70675  0.59513  0.33292  1.0000
  H   H51       1.0  0.73303  0.51126  0.32607  1.0000
  C   C127      1.0  0.84346  0.29629  0.32952  1.0000
  C   C128      1.0  0.80600  0.26925  0.32562  1.0000
  C   C129      1.0  0.79406  0.23129  0.32592  1.0000
  C   C130      1.0  0.82104  0.22043  0.33075  1.0000
  C   C131      1.0  0.85908  0.24663  0.33639  1.0000
  C   C132      1.0  0.86958  0.28442  0.33340  1.0000
  H   H52       1.0  0.81286  0.19303  0.33149  1.0000
  H   H53       1.0  0.89693  0.30382  0.33287  1.0000
  H   H54       1.0  0.78678  0.27753  0.32594  1.0000
  C   C133      1.0  0.08247  0.58137  0.33239  1.0000
  C   C134      1.0  0.09650  0.55729  0.33971  1.0000
  C   C135      1.0  0.13445  0.57035  0.34993  1.0000
  C   C136      1.0  0.15834  0.60897  0.35465  1.0000
  C   C137      1.0  0.14479  0.63392  0.35100  1.0000
  C   C138      1.0  0.10654  0.61939  0.34028  1.0000
  H   H55       1.0  0.18609  0.61907  0.35770  1.0000
  H   H56       1.0  0.09590  0.63666  0.33705  1.0000
  H   H57       1.0  0.07841  0.52951  0.33857  1.0000
  C   C139      1.0  0.42918  0.50320  0.33277  1.0000
  C   C140      1.0  0.45322  0.54131  0.34016  1.0000
  C   C141      1.0  0.44012  0.56617  0.35032  1.0000
  C   C142      1.0  0.40151  0.55143  0.35497  1.0000
  C   C143      1.0  0.37658  0.51292  0.35133  1.0000
  C   C144      1.0  0.39115  0.48923  0.34061  1.0000
  H   H58       1.0  0.39138  0.56905  0.35803  1.0000
  H   H59       1.0  0.37389  0.46131  0.33739  1.0000
  H   H60       1.0  0.48101  0.55104  0.33913  1.0000
  C   C145      1.0  0.50741  0.92813  0.33333  1.0000
  C   C146      1.0  0.46929  0.91407  0.34062  1.0000
  C   C147      1.0  0.44442  0.87611  0.35067  1.0000
  C   C148      1.0  0.45916  0.85223  0.35524  1.0000
  C   C149      1.0  0.49767  0.86581  0.35171  1.0000
  C   C150      1.0  0.52137  0.90407  0.34113  1.0000
  H   H61       1.0  0.44153  0.82448  0.35820  1.0000
  H   H62       1.0  0.54929  0.91472  0.33797  1.0000
  H   H63       1.0  0.45958  0.93215  0.33958  1.0000
  C   C151      1.0  0.58643  0.08060  0.32770  1.0000
  C   C152      1.0  0.56245  0.09491  0.32871  1.0000
  C   C153      1.0  0.57575  0.13309  0.33005  1.0000
  C   C154      1.0  0.61434  0.15708  0.32905  1.0000
  C   C155      1.0  0.63912  0.14334  0.32731  1.0000
  C   C156      1.0  0.62459  0.10489  0.32765  1.0000
  H   H64       1.0  0.62452  0.18486  0.33207  1.0000
  H   H65       1.0  0.64189  0.09429  0.32424  1.0000
  H   H66       1.0  0.53461  0.07696  0.32824  1.0000
  C   C157      1.0  0.50268  0.42421  0.32686  1.0000
  C   C158      1.0  0.54097  0.44817  0.32769  1.0000
  C   C159      1.0  0.56582  0.43483  0.32906  1.0000
  C   C160      1.0  0.55120  0.39624  0.32843  1.0000
  C   C161      1.0  0.51268  0.37148  0.32678  1.0000
  C   C162      1.0  0.48879  0.38604  0.32699  1.0000
  H   H67       1.0  0.56880  0.38606  0.33164  1.0000
  H   H68       1.0  0.46088  0.36875  0.32369  1.0000
  H   H69       1.0  0.55091  0.47602  0.32716  1.0000
  C   C163      1.0  0.93000  0.50787  0.32680  1.0000
  C   C164      1.0  0.91569  0.46958  0.32763  1.0000
  C   C165      1.0  0.87750  0.44472  0.32905  1.0000
  C   C166      1.0  0.85351  0.45932  0.32844  1.0000
  C   C167      1.0  0.86726  0.49784  0.32679  1.0000
  C   C168      1.0  0.90572  0.52175  0.32692  1.0000
  H   H70       1.0  0.82575  0.44172  0.33167  1.0000
  H   H71       1.0  0.91632  0.54965  0.32369  1.0000
  H   H72       1.0  0.93361  0.45966  0.32706  1.0000
  C   C169      1.0  0.00916  0.07462  0.34231  1.0000
  N   N25       1.0  0.03083  0.13726  0.38640  1.0000
  C   C170      1.0  0.03387  0.10638  0.39255  1.0000
  C   C171      1.0  0.05919  0.10710  0.45356  1.0000
  O   O49       1.0  0.04665  0.08746  0.51974  1.0000
  O   O50       1.0  0.08980  0.13464  0.46414  1.0000
  H   H73       1.0  0.10164  0.15155  0.42236  1.0000
  C   C172      1.0  0.93587  0.93656  0.34228  1.0000
  N   N26       1.0  0.87324  0.89557  0.38642  1.0000
  C   C173      1.0  0.90411  0.92949  0.39263  1.0000
  C   C174      1.0  0.90340  0.95412  0.45347  1.0000
  O   O51       1.0  0.92271  0.96052  0.52010  1.0000
  O   O52       1.0  0.87577  0.95686  0.46547  1.0000
  H   H74       1.0  0.85880  0.95198  0.42398  1.0000
  C   C175      1.0  0.07391  0.00132  0.34226  1.0000
  N   N27       1.0  0.11490  0.97967  0.38639  1.0000
  C   C176      1.0  0.08100  0.97666  0.39266  1.0000
  C   C177      1.0  0.05644  0.95141  0.45375  1.0000
  O   O53       1.0  0.04896  0.96382  0.51957  1.0000
  O   O54       1.0  0.05358  0.92095  0.46575  1.0000
  H   H75       1.0  0.05896  0.90906  0.42478  1.0000
  N   N28       1.0  0.10975  0.33873  0.42842  1.0000
  C   C178      1.0  0.08263  0.30291  0.43545  1.0000
  C   C179      1.0  0.07546  0.27936  0.36012  1.0000
  C   C180      1.0  0.06276  0.29132  0.51513  1.0000
  O   O55       1.0  0.05657  0.31282  0.55644  1.0000
  O   O56       1.0  0.06213  0.26661  0.56167  1.0000
  H   H76       1.0  0.06924  0.25104  0.54358  1.0000
  N   N29       1.0  0.67157  0.77237  0.42815  1.0000
  C   C181      1.0  0.70738  0.78101  0.43516  1.0000
  C   C182      1.0  0.73111  0.79802  0.36043  1.0000
  C   C183      1.0  0.71875  0.77210  0.51428  1.0000
  O   O57       1.0  0.69717  0.74407  0.55430  1.0000
  O   O58       1.0  0.74335  0.79579  0.56181  1.0000
  H   H77       1.0  0.75896  0.81861  0.54475  1.0000
  N   N30       1.0  0.23848  0.90146  0.42789  1.0000
  C   C184      1.0  0.22986  0.92864  0.43500  1.0000
  C   C185      1.0  0.21255  0.93515  0.36060  1.0000
  C   C186      1.0  0.23908  0.94912  0.51385  1.0000
  O   O59       1.0  0.26723  0.95563  0.55332  1.0000
  O   O60       1.0  0.21557  0.95019  0.56178  1.0000
  H   H78       1.0  0.19270  0.94297  0.54518  1.0000
  C   C187      1.0  0.35775  0.12437  0.34549  1.0000
  N   N31       1.0  0.30771  0.06878  0.40234  1.0000
  C   C188      1.0  0.34395  0.09460  0.40727  1.0000
  C   C189      1.0  0.36491  0.09048  0.47352  1.0000
  O   O61       1.0  0.35969  0.05968  0.48963  1.0000
  O   O62       1.0  0.37902  0.11280  0.53565  1.0000
  H   H79       1.0  0.38182  0.13515  0.53656  1.0000
  C   C190      1.0  0.77500  0.65268  0.34565  1.0000
  N   N32       1.0  0.76943  0.70272  0.40248  1.0000
  C   C191      1.0  0.75899  0.66647  0.40737  1.0000
  C   C192      1.0  0.73387  0.64550  0.47356  1.0000
  O   O63       1.0  0.70831  0.65074  0.48964  1.0000
  O   O64       1.0  0.74201  0.63129  0.53561  1.0000
  H   H80       1.0  0.76155  0.62847  0.53655  1.0000
  C   C193      1.0  0.88624  0.23558  0.34570  1.0000
  N   N33       1.0  0.94183  0.24113  0.40266  1.0000
  C   C194      1.0  0.91603  0.25159  0.40744  1.0000
  C   C195      1.0  0.92020  0.27675  0.47358  1.0000
  O   O65       1.0  0.95098  0.30253  0.48863  1.0000
  O   O66       1.0  0.89782  0.26861  0.53553  1.0000
  H   H81       1.0  0.87552  0.24898  0.53664  1.0000
  C   C196      1.0  0.33758  0.49688  0.35584  1.0000
  N   N34       1.0  0.28077  0.48737  0.41358  1.0000
  C   C197      1.0  0.31811  0.50685  0.41691  1.0000
  C   C198      1.0  0.33461  0.53383  0.48227  1.0000
  O   O67       1.0  0.35075  0.52753  0.54184  1.0000
  O   O68       1.0  0.32196  0.55353  0.50549  1.0000
  H   H82       1.0  0.30875  0.55946  0.47017  1.0000
  C   C199      1.0  0.51369  0.84283  0.35616  1.0000
  N   N35       1.0  0.52314  0.79548  0.41373  1.0000
  C   C200      1.0  0.50367  0.81335  0.41711  1.0000
  C   C201      1.0  0.47673  0.80285  0.48253  1.0000
  O   O69       1.0  0.48214  0.82522  0.54162  1.0000
  O   O70       1.0  0.45683  0.77045  0.50530  1.0000
  H   H83       1.0  0.45128  0.75131  0.47026  1.0000
  C   C202      1.0  0.16778  0.67292  0.35552  1.0000
  N   N36       1.0  0.21509  0.72971  0.41321  1.0000
  C   C203      1.0  0.19725  0.69237  0.41649  1.0000
  C   C204      1.0  0.20769  0.67591  0.48201  1.0000
  O   O71       1.0  0.18528  0.65895  0.54101  1.0000
  O   O72       1.0  0.24008  0.68843  0.50495  1.0000
  H   H84       1.0  0.25924  0.70202  0.46999  1.0000
  N   N37       1.0  0.46789  0.31210  0.37974  1.0000
  C   C205      1.0  0.44855  0.27474  0.38345  1.0000
  C   C206      1.0  0.45934  0.25523  0.32480  1.0000
  C   C207      1.0  0.42160  0.25831  0.44876  1.0000
  O   O73       1.0  0.40046  0.27003  0.45961  1.0000
  O   O74       1.0  0.42643  0.24417  0.51650  1.0000
  H   H85       1.0  0.44312  0.23725  0.52163  1.0000
  N   N38       1.0  0.85262  0.54259  0.37975  1.0000
  C   C208      1.0  0.83456  0.56189  0.38343  1.0000
  C   C209      1.0  0.80427  0.55109  0.32471  1.0000
  C   C210      1.0  0.84506  0.58885  0.44874  1.0000
  O   O75       1.0  0.87791  0.61001  0.45962  1.0000
  O   O76       1.0  0.82606  0.58401  0.51643  1.0000
  H   H86       1.0  0.80246  0.56732  0.52153  1.0000
  N   N39       1.0  0.69855  0.15800  0.37995  1.0000
  C   C211      1.0  0.73591  0.17601  0.38343  1.0000
  C   C212      1.0  0.75536  0.20631  0.32471  1.0000
  C   C213      1.0  0.75239  0.16557  0.44890  1.0000
  O   O77       1.0  0.74092  0.13272  0.45869  1.0000
  O   O78       1.0  0.76623  0.18459  0.51672  1.0000
  H   H87       1.0  0.77297  0.20815  0.52181  1.0000
  N   N40       1.0  0.17688  0.51377  0.41300  1.0000
  C   C214      1.0  0.17188  0.54340  0.41477  1.0000
  C   C215      1.0  0.14615  0.54373  0.35364  1.0000
  C   C216      1.0  0.19038  0.57019  0.47948  1.0000
  O   O79       1.0  0.22280  0.58041  0.49282  1.0000
  O   O80       1.0  0.17417  0.57380  0.54464  1.0000
  H   H88       1.0  0.15013  0.56495  0.54798  1.0000
  N   N41       1.0  0.49669  0.66518  0.41341  1.0000
  C   C217      1.0  0.46706  0.63055  0.41518  1.0000
  C   C218      1.0  0.46672  0.60451  0.35398  1.0000
  C   C219      1.0  0.44027  0.62225  0.47990  1.0000
  O   O81       1.0  0.43008  0.64447  0.49335  1.0000
  O   O82       1.0  0.43660  0.60235  0.54494  1.0000
  H   H89       1.0  0.44544  0.58715  0.54821  1.0000
  N   N42       1.0  0.34537  0.83359  0.41347  1.0000
  C   C220      1.0  0.38001  0.83861  0.41531  1.0000
  C   C221      1.0  0.40608  0.86437  0.35424  1.0000
  C   C222      1.0  0.38828  0.82007  0.47993  1.0000
  O   O83       1.0  0.36607  0.78763  0.49312  1.0000
  O   O84       1.0  0.40808  0.83623  0.54516  1.0000
  H   H90       1.0  0.42327  0.86027  0.54861  1.0000
  C   C223      1.0  0.48941  0.15751  0.33235  1.0000
  N   N43       1.0  0.52008  0.12694  0.38750  1.0000
  C   C224      1.0  0.49045  0.13173  0.39206  1.0000
  C   C225      1.0  0.46429  0.11260  0.45762  1.0000
  O   O85       1.0  0.46243  0.13074  0.51949  1.0000
  O   O86       1.0  0.45450  0.08041  0.47738  1.0000
  H   H91       1.0  0.45532  0.06439  0.44004  1.0000
  C   C226      1.0  0.67652  0.52106  0.33177  1.0000
  N   N44       1.0  0.61540  0.49011  0.38773  1.0000
  C   C227      1.0  0.64984  0.51973  0.39245  1.0000
  C   C228      1.0  0.65705  0.54553  0.45910  1.0000
  O   O87       1.0  0.67735  0.54719  0.52001  1.0000
  O   O88       1.0  0.63466  0.55513  0.48056  1.0000
  H   H92       1.0  0.61766  0.55444  0.44407  1.0000
  C   C229      1.0  0.85308  0.33404  0.33166  1.0000
  N   N45       1.0  0.88322  0.39515  0.38767  1.0000
  C   C230      1.0  0.87841  0.36072  0.39237  1.0000
  C   C231      1.0  0.89704  0.35350  0.45900  1.0000
  O   O89       1.0  0.87831  0.33343  0.52009  1.0000
  O   O90       1.0  0.92919  0.37585  0.47926  1.0000
  H   H93       1.0  0.94542  0.39252  0.44201  1.0000
  C   C232      1.0  0.96835  0.53130  0.32428  1.0000
  N   N46       1.0  0.02627  0.57417  0.38533  1.0000
  C   C233      1.0  0.98913  0.55832  0.38974  1.0000
  C   C234      1.0  0.97374  0.56599  0.46320  1.0000
  O   O91       1.0  0.98667  0.59834  0.48345  1.0000
  O   O92       1.0  0.96071  0.54438  0.52699  1.0000
  H   H94       1.0  0.95326  0.52059  0.52444  1.0000
  C   C235      1.0  0.47926  0.43914  0.32447  1.0000
  N   N47       1.0  0.43631  0.45410  0.38552  1.0000
  C   C236      1.0  0.45217  0.43281  0.38983  1.0000
  C   C237      1.0  0.44428  0.40958  0.46297  1.0000
  O   O93       1.0  0.41203  0.39023  0.48407  1.0000
  O   O94       1.0  0.46612  0.41769  0.52622  1.0000
  H   H95       1.0  0.48994  0.43394  0.52355  1.0000
  C   C238      1.0  0.57152  0.04225  0.32519  1.0000
  N   N48       1.0  0.55648  0.98434  0.38625  1.0000
  C   C239      1.0  0.57782  0.02149  0.39057  1.0000
  C   C240      1.0  0.60090  0.03678  0.46397  1.0000
  O   O95       1.0  0.62025  0.02390  0.48528  1.0000
  O   O96       1.0  0.59263  0.05042  0.52713  1.0000
  H   H96       1.0  0.57636  0.05795  0.52429  1.0000
