data_image0
_chemical_formula_structural       C4OC4OH4N2C4OC4OH4N2C4OC4OH4N2C2NHCHC2NHCHC2NHCHC2NHCHC2NHCHC2NHCHC2HC2HN2C2HC2HN2C2HC2HN2C2NOCH3CHC2NOCH3CHC2NOCH3CHC2NOCH3CHC2NOCH3CHC2NOCH3CH
_chemical_formula_sum              "C78 O12 H54 N24"
_cell_length_a       31.7039
_cell_length_b       31.7039
_cell_length_c       15.0483
_cell_angle_alpha    90
_cell_angle_beta     90
_cell_angle_gamma    120

_space_group_name_H-M_alt    "P 1"
_space_group_IT_number       1

loop_
  _space_group_symop_operation_xyz
  'x, y, z'

loop_
  _atom_site_type_symbol
  _atom_site_label
  _atom_site_symmetry_multiplicity
  _atom_site_fract_x
  _atom_site_fract_y
  _atom_site_fract_z
  _atom_site_occupancy
  C   C1        1.0  0.97169  0.48403  0.34033  1.0000
  C   C2        1.0  0.86784  0.42615  0.33687  1.0000
  C   C3        1.0  0.89667  0.40381  0.32879  1.0000
  C   C4        1.0  0.94755  0.43314  0.32258  1.0000
  O   O1        1.0  0.81826  0.39844  0.33867  1.0000
  C   C5        1.0  0.02360  0.51317  0.34032  1.0000
  C   C6        1.0  0.04773  0.56406  0.32258  1.0000
  C   C7        1.0  0.09860  0.59339  0.32863  1.0000
  C   C8        1.0  0.12744  0.57107  0.33669  1.0000
  O   O2        1.0  0.17702  0.59881  0.33842  1.0000
  H   H1        1.0  0.80772  0.38575  0.27816  1.0000
  H   H2        1.0  0.18754  0.61147  0.27788  1.0000
  H   H3        1.0  0.96674  0.41602  0.30803  1.0000
  H   H4        1.0  0.02853  0.58115  0.30791  1.0000
  N   N1        1.0  0.11991  0.64220  0.31870  1.0000
  N   N2        1.0  0.87538  0.35499  0.31905  1.0000
  C   C9        1.0  0.51196  0.48686  0.34033  1.0000
  C   C10       1.0  0.56983  0.44089  0.33687  1.0000
  C   C11       1.0  0.59217  0.49205  0.32879  1.0000
  C   C12       1.0  0.56285  0.51360  0.32258  1.0000
  O   O3        1.0  0.59755  0.41902  0.33867  1.0000
  C   C13       1.0  0.48281  0.50962  0.34032  1.0000
  C   C14       1.0  0.43193  0.48286  0.32258  1.0000
  C   C15       1.0  0.40259  0.50441  0.32863  1.0000
  C   C16       1.0  0.42492  0.55557  0.33669  1.0000
  O   O4        1.0  0.39718  0.57741  0.33842  1.0000
  H   H5        1.0  0.61023  0.42116  0.27816  1.0000
  H   H6        1.0  0.38451  0.57526  0.27788  1.0000
  H   H7        1.0  0.57996  0.54991  0.30803  1.0000
  H   H8        1.0  0.41483  0.44657  0.30791  1.0000
  N   N3        1.0  0.35379  0.47691  0.31869  1.0000
  N   N4        1.0  0.64100  0.51958  0.31905  1.0000
  C   C17       1.0  0.50912  0.02430  0.34033  1.0000
  C   C18       1.0  0.55510  0.12814  0.33687  1.0000
  C   C19       1.0  0.50394  0.09932  0.32879  1.0000
  C   C20       1.0  0.48238  0.04844  0.32258  1.0000
  O   O5        1.0  0.57697  0.17772  0.33867  1.0000
  C   C21       1.0  0.48636  0.97239  0.34032  1.0000
  C   C22       1.0  0.51312  0.94826  0.32258  1.0000
  C   C23       1.0  0.49158  0.89738  0.32863  1.0000
  C   C24       1.0  0.44042  0.86855  0.33669  1.0000
  O   O6        1.0  0.41857  0.81896  0.33842  1.0000
  H   H9        1.0  0.57483  0.18827  0.27816  1.0000
  H   H10       1.0  0.42073  0.80845  0.27788  1.0000
  H   H11       1.0  0.44608  0.02925  0.30803  1.0000
  H   H12       1.0  0.54941  0.96746  0.30791  1.0000
  N   N5        1.0  0.51908  0.87608  0.31870  1.0000
  N   N6        1.0  0.47640  0.12061  0.31905  1.0000
  C   C25       1.0  0.20085  0.48732  0.31829  1.0000
  C   C26       1.0  0.23391  0.49027  0.25211  1.0000
  N   N7        1.0  0.27066  0.48185  0.27241  1.0000
  H   H13       1.0  0.23242  0.50129  0.18888  1.0000
  C   C27       1.0  0.16932  0.50539  0.30012  1.0000
  H   H14       1.0  0.17545  0.52586  0.24379  1.0000
  C   C28       1.0  0.50867  0.71273  0.31829  1.0000
  C   C29       1.0  0.50572  0.74284  0.25211  1.0000
  N   N8        1.0  0.51413  0.78801  0.27241  1.0000
  H   H15       1.0  0.49469  0.73032  0.18888  1.0000
  C   C30       1.0  0.49060  0.66312  0.30012  1.0000
  H   H16       1.0  0.47012  0.64878  0.24379  1.0000
  C   C31       1.0  0.28326  0.79513  0.31829  1.0000
  C   C32       1.0  0.25315  0.76207  0.25211  1.0000
  N   N9        1.0  0.20798  0.72532  0.27241  1.0000
  H   H17       1.0  0.26567  0.76357  0.18888  1.0000
  C   C33       1.0  0.33286  0.82667  0.30012  1.0000
  H   H18       1.0  0.34720  0.82054  0.24379  1.0000
  C   C34       1.0  0.79437  0.50977  0.31840  1.0000
  C   C35       1.0  0.76134  0.50685  0.25219  1.0000
  N   N10       1.0  0.72442  0.51500  0.27255  1.0000
  H   H19       1.0  0.76297  0.49601  0.18886  1.0000
  C   C36       1.0  0.82604  0.49188  0.30014  1.0000
  H   H20       1.0  0.81999  0.47149  0.24372  1.0000
  C   C37       1.0  0.48622  0.28379  0.31840  1.0000
  C   C38       1.0  0.48914  0.25368  0.25219  1.0000
  N   N11       1.0  0.48099  0.20862  0.27255  1.0000
  H   H21       1.0  0.49997  0.26615  0.18886  1.0000
  C   C39       1.0  0.50411  0.33336  0.30014  1.0000
  H   H22       1.0  0.52450  0.34770  0.24372  1.0000
  C   C40       1.0  0.71219  0.20162  0.31840  1.0000
  C   C41       1.0  0.74230  0.23465  0.25219  1.0000
  N   N12       1.0  0.78737  0.27157  0.27255  1.0000
  H   H23       1.0  0.72983  0.23302  0.18886  1.0000
  C   C42       1.0  0.66262  0.16995  0.30014  1.0000
  H   H24       1.0  0.64829  0.17600  0.24372  1.0000
  C   C43       1.0  0.94143  0.50450  0.35675  1.0000
  C   C44       1.0  0.89042  0.47715  0.34824  1.0000
  H   H25       1.0  0.95634  0.54069  0.37108  1.0000
  C   C45       1.0  0.10488  0.52008  0.34814  1.0000
  C   C46       1.0  0.05388  0.49272  0.35678  1.0000
  H   H26       1.0  0.03897  0.45652  0.37096  1.0000
  N   N13       1.0  0.12965  0.49547  0.34910  1.0000
  N   N14       1.0  0.86565  0.50175  0.34925  1.0000
  C   C47       1.0  0.49148  0.43612  0.35675  1.0000
  C   C48       1.0  0.51884  0.41247  0.34824  1.0000
  H   H27       1.0  0.45530  0.41485  0.37108  1.0000
  C   C49       1.0  0.47590  0.58400  0.34814  1.0000
  C   C50       1.0  0.50327  0.56036  0.35678  1.0000
  H   H28       1.0  0.53947  0.58165  0.37096  1.0000
  N   N15       1.0  0.50052  0.63338  0.34910  1.0000
  N   N16       1.0  0.49423  0.36309  0.34925  1.0000
  C   C51       1.0  0.55986  0.05456  0.35675  1.0000
  C   C52       1.0  0.58351  0.10556  0.34824  1.0000
  H   H29       1.0  0.58114  0.03965  0.37108  1.0000
  C   C53       1.0  0.41199  0.89110  0.34814  1.0000
  C   C54       1.0  0.43563  0.94211  0.35678  1.0000
  H   H30       1.0  0.41434  0.95701  0.37096  1.0000
  N   N17       1.0  0.36261  0.86633  0.34910  1.0000
  N   N18       1.0  0.63290  0.13034  0.34925  1.0000
  C   C55       1.0  0.20623  0.47192  0.40388  1.0000
  C   C56       1.0  0.27699  0.47010  0.35606  1.0000
  N   N19       1.0  0.24497  0.46576  0.42024  1.0000
  O   O7        1.0  0.17649  0.46732  0.47369  1.0000
  C   C57       1.0  0.19760  0.50743  0.53512  1.0000
  H   H31       1.0  0.22980  0.51035  0.56757  1.0000
  H   H32       1.0  0.17063  0.50084  0.58625  1.0000
  H   H33       1.0  0.20725  0.54183  0.50225  1.0000
  C   C58       1.0  0.32134  0.47403  0.38016  1.0000
  H   H34       1.0  0.33245  0.48305  0.44481  1.0000
  C   C59       1.0  0.52407  0.73350  0.40388  1.0000
  C   C60       1.0  0.52589  0.80609  0.35606  1.0000
  N   N20       1.0  0.53022  0.77841  0.42024  1.0000
  O   O8        1.0  0.52867  0.70837  0.47369  1.0000
  C   C61       1.0  0.48856  0.68937  0.53512  1.0000
  H   H35       1.0  0.48564  0.71865  0.56757  1.0000
  H   H36       1.0  0.49514  0.66898  0.58625  1.0000
  H   H37       1.0  0.45416  0.66461  0.50225  1.0000
  C   C62       1.0  0.52196  0.84651  0.38016  1.0000
  H   H38       1.0  0.51293  0.84859  0.44481  1.0000
  C   C63       1.0  0.26249  0.78976  0.40388  1.0000
  C   C64       1.0  0.18990  0.71900  0.35606  1.0000
  N   N21       1.0  0.21758  0.75102  0.42024  1.0000
  O   O9        1.0  0.28762  0.81950  0.47369  1.0000
  C   C65       1.0  0.30662  0.79839  0.53512  1.0000
  H   H39       1.0  0.27734  0.76619  0.56757  1.0000
  H   H40       1.0  0.32701  0.82536  0.58625  1.0000
  H   H41       1.0  0.33137  0.78874  0.50225  1.0000
  C   C66       1.0  0.14948  0.67465  0.38017  1.0000
  H   H42       1.0  0.14740  0.66354  0.44481  1.0000
  C   C67       1.0  0.78880  0.52490  0.40412  1.0000
  C   C68       1.0  0.71791  0.52646  0.35630  1.0000
  N   N22       1.0  0.74989  0.53078  0.42052  1.0000
  O   O10       1.0  0.81851  0.52947  0.47395  1.0000
  C   C69       1.0  0.79746  0.48926  0.53517  1.0000
  H   H43       1.0  0.76519  0.48618  0.56762  1.0000
  H   H44       1.0  0.82442  0.49583  0.58631  1.0000
  H   H45       1.0  0.78793  0.45494  0.50209  1.0000
  C   C70       1.0  0.67339  0.52214  0.38034  1.0000
  H   H46       1.0  0.66225  0.51306  0.44497  1.0000
  C   C71       1.0  0.47109  0.26310  0.40412  1.0000
  C   C72       1.0  0.46953  0.19064  0.35630  1.0000
  N   N23       1.0  0.46520  0.21831  0.42052  1.0000
  O   O11       1.0  0.46651  0.28824  0.47395  1.0000
  C   C73       1.0  0.50673  0.30740  0.53517  1.0000
  H   H47       1.0  0.50980  0.27821  0.56762  1.0000
  H   H48       1.0  0.50015  0.32778  0.58631  1.0000
  H   H49       1.0  0.54105  0.33219  0.50209  1.0000
  C   C74       1.0  0.47384  0.15044  0.38034  1.0000
  H   H50       1.0  0.48293  0.14839  0.44497  1.0000
  C   C75       1.0  0.73289  0.20718  0.40412  1.0000
  C   C76       1.0  0.80534  0.27808  0.35630  1.0000
  N   N24       1.0  0.77768  0.24609  0.42052  1.0000
  O   O12       1.0  0.70775  0.17747  0.47395  1.0000
  C   C77       1.0  0.68859  0.19853  0.53517  1.0000
  H   H51       1.0  0.71778  0.23079  0.56762  1.0000
  H   H52       1.0  0.66820  0.17157  0.58631  1.0000
  H   H53       1.0  0.66380  0.20806  0.50209  1.0000
  C   C78       1.0  0.84555  0.32260  0.38034  1.0000
  H   H54       1.0  0.84760  0.33373  0.44497  1.0000
