data_image0
_chemical_formula_structural       C2NC2ONH2NCHNCHNCHC2NC2ONH2C2NC2ONH2C2NC2ONH2C2NC2ONH2NCHNCHC2NC2ONH2C2NC2ONH2NCHNCHC2NC2ONH2C2NC2ONH2NCHNCHC2NC2ONH2C2NC2ONH2NCHNCHNCHC2NC2ONH2CNCNCNCNCNCNCNCNCNCNCNCNCNCNCNCNCNCNCNCNCNCNCNCNCNCNCNCNCNCNCNCNCNCNCNCNCNCNCNCNCNCNCNCNCNCNCNCN2CHC2NC2ONH2C2NC2ONH2C2NC2ONH2NCHNCHNCHNCHC2NC2ONH2C2NC2ONH2NCHNCHC2NC2ONH2C2NC2ONH2NCHNCHC2NC2ONH2C2NC2ONH2NCHNCHC2NC2ONH2C2NC2ONH2C2NC2ONH2NCH
_chemical_formula_sum              "C168 N120 O24 H72"
_cell_length_a       53.8782
_cell_length_b       27.7784
_cell_length_c       14.8508
_cell_angle_alpha    90
_cell_angle_beta     90
_cell_angle_gamma    90

_space_group_name_H-M_alt    "P 1"
_space_group_IT_number       1

loop_
  _space_group_symop_operation_xyz
  'x, y, z'

loop_
  _atom_site_type_symbol
  _atom_site_label
  _atom_site_symmetry_multiplicity
  _atom_site_fract_x
  _atom_site_fract_y
  _atom_site_fract_z
  _atom_site_occupancy
  C   C1        1.0  0.49418  0.45857  0.32921  1.0000
  C   C2        1.0  0.51614  0.54975  0.34803  1.0000
  N   N1        1.0  0.52891  0.51178  0.31439  1.0000
  C   C3        1.0  0.51933  0.46689  0.30268  1.0000
  C   C4        1.0  0.53538  0.43356  0.25998  1.0000
  O   O1        1.0  0.55988  0.43482  0.28001  1.0000
  N   N2        1.0  0.52819  0.40606  0.18952  1.0000
  H   H1        1.0  0.51136  0.40746  0.16597  1.0000
  H   H2        1.0  0.54018  0.38592  0.15831  1.0000
  N   N3        1.0  0.02869  0.99680  0.32466  1.0000
  C   C5        1.0  0.01905  0.04160  0.31615  1.0000
  H   H3        1.0  0.03001  0.06820  0.29001  1.0000
  N   N4        1.0  0.40457  0.38418  0.33134  1.0000
  C   C6        1.0  0.37958  0.37675  0.32690  1.0000
  H   H4        1.0  0.36847  0.40284  0.29990  1.0000
  N   N5        1.0  0.60534  0.62497  0.33661  1.0000
  C   C7        1.0  0.63029  0.63251  0.33026  1.0000
  H   H5        1.0  0.64125  0.60656  0.30198  1.0000
  C   C8        1.0  0.08885  0.85163  0.32229  1.0000
  C   C9        1.0  0.14029  0.83188  0.33282  1.0000
  N   N6        1.0  0.12377  0.79992  0.29854  1.0000
  C   C10       1.0  0.09895  0.80728  0.29010  1.0000
  C   C11       1.0  0.08601  0.77031  0.24420  1.0000
  O   O2        1.0  0.09261  0.72398  0.25919  1.0000
  N   N7        1.0  0.07053  0.77941  0.17456  1.0000
  H   H6        1.0  0.06713  0.81209  0.15465  1.0000
  H   H7        1.0  0.06331  0.75298  0.14048  1.0000
  C   C12       1.0  0.92114  0.15733  0.31511  1.0000
  C   C13       1.0  0.86980  0.17727  0.32951  1.0000
  N   N8        1.0  0.88612  0.20901  0.29334  1.0000
  C   C14       1.0  0.91087  0.20153  0.28303  1.0000
  C   C15       1.0  0.92354  0.23808  0.23503  1.0000
  O   O3        1.0  0.91706  0.28456  0.24911  1.0000
  N   N9        1.0  0.93833  0.22836  0.16373  1.0000
  H   H8        1.0  0.94145  0.19551  0.14419  1.0000
  H   H9        1.0  0.94520  0.25448  0.12792  1.0000
  C   C16       1.0  0.53568  0.20816  0.34043  1.0000
  C   C17       1.0  0.50414  0.28848  0.34838  1.0000
  N   N10       1.0  0.52857  0.29237  0.32536  1.0000
  C   C18       1.0  0.54492  0.25484  0.32037  1.0000
  C   C19       1.0  0.56910  0.26541  0.28914  1.0000
  O   O4        1.0  0.57936  0.30798  0.31317  1.0000
  N   N11       1.0  0.58067  0.23961  0.22434  1.0000
  H   H10       1.0  0.57262  0.21248  0.19508  1.0000
  H   H11       1.0  0.59642  0.25063  0.19994  1.0000
  C   C20       1.0  0.47469  0.80086  0.36053  1.0000
  C   C21       1.0  0.50581  0.71983  0.36562  1.0000
  N   N12       1.0  0.48144  0.71669  0.34142  1.0000
  C   C22       1.0  0.46532  0.75465  0.33760  1.0000
  C   C23       1.0  0.44119  0.74515  0.30480  1.0000
  O   O5        1.0  0.43032  0.70298  0.32778  1.0000
  N   N13       1.0  0.43036  0.77132  0.23883  1.0000
  H   H12       1.0  0.43895  0.79803  0.21022  1.0000
  H   H13       1.0  0.41468  0.76088  0.21290  1.0000
  N   N14       1.0  0.99872  0.70534  0.32218  1.0000
  C   C24       1.0  0.01469  0.74233  0.31703  1.0000
  H   H14       1.0  0.03268  0.73564  0.29923  1.0000
  N   N15       1.0  0.01108  0.30286  0.30074  1.0000
  C   C25       1.0  0.99532  0.26550  0.29687  1.0000
  H   H15       1.0  0.97737  0.27160  0.27784  1.0000
  C   C26       1.0  0.30972  0.20322  0.34349  1.0000
  C   C27       1.0  0.30742  0.10065  0.35608  1.0000
  N   N16       1.0  0.28731  0.12809  0.33414  1.0000
  C   C28       1.0  0.28723  0.17743  0.32675  1.0000
  C   C29       1.0  0.26482  0.19861  0.29735  1.0000
  O   O6        1.0  0.24319  0.18059  0.32913  1.0000
  N   N17       1.0  0.26372  0.22847  0.22556  1.0000
  H   H16       1.0  0.27857  0.23746  0.19222  1.0000
  H   H17       1.0  0.24776  0.23894  0.20226  1.0000
  C   C30       1.0  0.70031  0.80583  0.34437  1.0000
  C   C31       1.0  0.70269  0.90840  0.35639  1.0000
  N   N18       1.0  0.72274  0.88089  0.33413  1.0000
  C   C32       1.0  0.72278  0.83155  0.32698  1.0000
  C   C33       1.0  0.74513  0.81026  0.29730  1.0000
  O   O7        1.0  0.76684  0.82837  0.32821  1.0000
  N   N19       1.0  0.74613  0.78034  0.22556  1.0000
  H   H18       1.0  0.73124  0.77146  0.19241  1.0000
  H   H19       1.0  0.76207  0.77002  0.20174  1.0000
  N   N20       1.0  0.18047  0.67547  0.32103  1.0000
  C   C34       1.0  0.18054  0.62694  0.31453  1.0000
  H   H20       1.0  0.16423  0.61056  0.29766  1.0000
  N   N21       1.0  0.82955  0.33367  0.32000  1.0000
  C   C35       1.0  0.82945  0.38222  0.31375  1.0000
  H   H21       1.0  0.84572  0.39868  0.29661  1.0000
  C   C36       1.0  0.24157  0.43639  0.31858  1.0000
  C   C37       1.0  0.28203  0.37178  0.33415  1.0000
  N   N22       1.0  0.25963  0.35798  0.30171  1.0000
  C   C38       1.0  0.23955  0.38709  0.29143  1.0000
  C   C39       1.0  0.21915  0.36492  0.24788  1.0000
  O   O8        1.0  0.21337  0.31894  0.26957  1.0000
  N   N23       1.0  0.20829  0.38413  0.17408  1.0000
  H   H22       1.0  0.21358  0.41493  0.14963  1.0000
  H   H23       1.0  0.19551  0.36633  0.14195  1.0000
  C   C40       1.0  0.76828  0.57246  0.31888  1.0000
  C   C41       1.0  0.72789  0.63719  0.33468  1.0000
  N   N24       1.0  0.75022  0.65084  0.30148  1.0000
  C   C42       1.0  0.77026  0.62164  0.29096  1.0000
  C   C43       1.0  0.79064  0.64356  0.24687  1.0000
  O   O9        1.0  0.79630  0.68983  0.26686  1.0000
  N   N25       1.0  0.80167  0.62378  0.17392  1.0000
  H   H24       1.0  0.79644  0.59275  0.15027  1.0000
  H   H25       1.0  0.81438  0.64146  0.14121  1.0000
  N   N26       1.0  0.24584  0.95051  0.33676  1.0000
  C   C44       1.0  0.22573  0.92098  0.32967  1.0000
  H   H26       1.0  0.20947  0.93455  0.30484  1.0000
  N   N27       1.0  0.76435  0.05849  0.33568  1.0000
  C   C45       1.0  0.78445  0.08807  0.32858  1.0000
  H   H27       1.0  0.80064  0.07462  0.30303  1.0000
  C   C46       1.0  0.15329  0.45796  0.30981  1.0000
  C   C47       1.0  0.10575  0.41695  0.31771  1.0000
  N   N28       1.0  0.10999  0.46153  0.28354  1.0000
  C   C48       1.0  0.13235  0.48326  0.27594  1.0000
  C   C49       1.0  0.13234  0.52800  0.23028  1.0000
  O   O10       1.0  0.11298  0.55831  0.24298  1.0000
  N   N29       1.0  0.14832  0.53805  0.16262  1.0000
  H   H28       1.0  0.16095  0.51518  0.14386  1.0000
  H   H29       1.0  0.14660  0.56772  0.12838  1.0000
  C   C50       1.0  0.85660  0.55149  0.31452  1.0000
  C   C51       1.0  0.90399  0.59247  0.32898  1.0000
  N   N30       1.0  0.90011  0.54826  0.29262  1.0000
  C   C52       1.0  0.87780  0.52668  0.28159  1.0000
  C   C53       1.0  0.87813  0.48235  0.23453  1.0000
  O   O11       1.0  0.89755  0.45216  0.24693  1.0000
  N   N31       1.0  0.86242  0.47264  0.16586  1.0000
  H   H30       1.0  0.84981  0.49558  0.14704  1.0000
  H   H31       1.0  0.86442  0.44338  0.13062  1.0000
  N   N32       1.0  0.36069  0.91255  0.34463  1.0000
  C   C54       1.0  0.38329  0.89067  0.34138  1.0000
  H   H32       1.0  0.38493  0.85708  0.31389  1.0000
  N   N33       1.0  0.64982  0.09651  0.33759  1.0000
  C   C55       1.0  0.62728  0.11845  0.33146  1.0000
  H   H33       1.0  0.62589  0.15159  0.30195  1.0000
  N   N34       1.0  0.98077  0.49845  0.33410  1.0000
  C   C56       1.0  0.99631  0.46075  0.32342  1.0000
  H   H34       1.0  0.98945  0.42902  0.29892  1.0000
  C   C57       1.0  0.52202  0.04207  0.32065  1.0000
  C   C58       1.0  0.48835  0.96720  0.34372  1.0000
  N   N35       1.0  0.48106  0.01056  0.31156  1.0000
  C   C59       1.0  0.49651  0.04837  0.29792  1.0000
  C   C60       1.0  0.48552  0.08945  0.25794  1.0000
  O   O12       1.0  0.46203  0.10138  0.28141  1.0000
  N   N36       1.0  0.49557  0.11224  0.18622  1.0000
  H   H35       1.0  0.51117  0.10164  0.15980  1.0000
  H   H36       1.0  0.48659  0.13811  0.15656  1.0000
  C   C61       1.0  0.44719  0.36145  0.35608  1.0000
  N   N37       1.0  0.45733  0.40629  0.34516  1.0000
  C   C62       1.0  0.48243  0.41286  0.33503  1.0000
  N   N38       1.0  0.49719  0.37341  0.33828  1.0000
  C   C63       1.0  0.48812  0.32852  0.34748  1.0000
  N   N39       1.0  0.46319  0.32373  0.35521  1.0000
  C   C64       1.0  0.56288  0.64726  0.36638  1.0000
  N   N40       1.0  0.55280  0.60223  0.35820  1.0000
  C   C65       1.0  0.52761  0.59542  0.35444  1.0000
  N   N41       1.0  0.51261  0.63463  0.35684  1.0000
  C   C66       1.0  0.52175  0.67968  0.36316  1.0000
  N   N42       1.0  0.54674  0.68476  0.36728  1.0000
  C   C67       1.0  0.06285  0.86145  0.33070  1.0000
  N   N43       1.0  0.05272  0.90629  0.34164  1.0000
  C   C68       1.0  0.02761  0.91287  0.35166  1.0000
  N   N44       1.0  0.01285  0.87342  0.34841  1.0000
  C   C69       1.0  0.02192  0.82853  0.33919  1.0000
  N   N45       1.0  0.04684  0.82373  0.33150  1.0000
  C   C70       1.0  0.94717  0.14726  0.32043  1.0000
  N   N46       1.0  0.95725  0.10223  0.32863  1.0000
  C   C71       1.0  0.98244  0.09543  0.33242  1.0000
  N   N47       1.0  0.99744  0.13463  0.33002  1.0000
  C   C72       1.0  0.98830  0.17968  0.32365  1.0000
  N   N48       1.0  0.96331  0.18476  0.31950  1.0000
  C   C73       1.0  0.31424  0.25433  0.34283  1.0000
  N   N49       1.0  0.29623  0.28879  0.33874  1.0000
  C   C74       1.0  0.30137  0.33705  0.33954  1.0000
  N   N50       1.0  0.32561  0.35083  0.34401  1.0000
  C   C75       1.0  0.34437  0.31818  0.34863  1.0000
  N   N51       1.0  0.33807  0.27069  0.34854  1.0000
  C   C76       1.0  0.69576  0.75473  0.34396  1.0000
  N   N52       1.0  0.71374  0.72023  0.33937  1.0000
  C   C77       1.0  0.70857  0.67198  0.34040  1.0000
  N   N53       1.0  0.68434  0.65825  0.34564  1.0000
  C   C78       1.0  0.66561  0.69094  0.35072  1.0000
  N   N54       1.0  0.67193  0.73842  0.35042  1.0000
  C   C79       1.0  0.19581  0.75433  0.34389  1.0000
  N   N55       1.0  0.21382  0.78880  0.34801  1.0000
  C   C80       1.0  0.20867  0.83706  0.34723  1.0000
  N   N56       1.0  0.18443  0.85083  0.34276  1.0000
  C   C81       1.0  0.16567  0.81819  0.33812  1.0000
  N   N57       1.0  0.17197  0.77070  0.33818  1.0000
  C   C82       1.0  0.81429  0.25473  0.34281  1.0000
  N   N58       1.0  0.79631  0.22023  0.34741  1.0000
  C   C83       1.0  0.80148  0.17198  0.34638  1.0000
  N   N59       1.0  0.82571  0.15825  0.34113  1.0000
  C   C84       1.0  0.84444  0.19094  0.33605  1.0000
  N   N60       1.0  0.83812  0.23842  0.33634  1.0000
  C   C85       1.0  0.04743  0.34629  0.32884  1.0000
  N   N61       1.0  0.07232  0.35589  0.32455  1.0000
  C   C86       1.0  0.08073  0.40242  0.32545  1.0000
  N   N62       1.0  0.06386  0.43872  0.33127  1.0000
  C   C87       1.0  0.03925  0.43033  0.33540  1.0000
  N   N63       1.0  0.03176  0.38431  0.33412  1.0000
  C   C88       1.0  0.96200  0.66307  0.35030  1.0000
  N   N64       1.0  0.93722  0.65344  0.34145  1.0000
  C   C89       1.0  0.92886  0.60688  0.34173  1.0000
  N   N65       1.0  0.94565  0.57061  0.35131  1.0000
  C   C90       1.0  0.97014  0.57895  0.36271  1.0000
  N   N66       1.0  0.97744  0.62502  0.35974  1.0000
  C   C91       1.0  0.46262  0.84628  0.35801  1.0000
  N   N67       1.0  0.43773  0.85589  0.36228  1.0000
  C   C92       1.0  0.42932  0.90243  0.36134  1.0000
  N   N68       1.0  0.44619  0.93871  0.35538  1.0000
  C   C93       1.0  0.47081  0.93031  0.35123  1.0000
  N   N69       1.0  0.47829  0.88429  0.35261  1.0000
  C   C94       1.0  0.54803  0.16305  0.33672  1.0000
  N   N70       1.0  0.57281  0.15342  0.34542  1.0000
  C   C95       1.0  0.58118  0.10686  0.34504  1.0000
  N   N71       1.0  0.56439  0.07060  0.33540  1.0000
  C   C96       1.0  0.53990  0.07894  0.32413  1.0000
  N   N72       1.0  0.53259  0.12501  0.32716  1.0000
  C   C97       1.0  0.20296  0.54885  0.32760  1.0000
  N   N73       1.0  0.22342  0.51924  0.32704  1.0000
  C   C98       1.0  0.22128  0.46986  0.32160  1.0000
  N   N74       1.0  0.19795  0.45124  0.31888  1.0000
  C   C99       1.0  0.17725  0.47852  0.31782  1.0000
  N   N75       1.0  0.18053  0.52666  0.32290  1.0000
  C   C100      1.0  0.80702  0.46020  0.32801  1.0000
  N   N76       1.0  0.78651  0.48970  0.32706  1.0000
  C   C101      1.0  0.78859  0.53910  0.32238  1.0000
  N   N77       1.0  0.81189  0.55787  0.32102  1.0000
  C   C102      1.0  0.83264  0.53070  0.32043  1.0000
  N   N78       1.0  0.82943  0.48251  0.32463  1.0000
  C   C103      1.0  0.30709  0.04885  0.35920  1.0000
  N   N79       1.0  0.28663  0.01922  0.35972  1.0000
  C   C104      1.0  0.28876  0.96984  0.36518  1.0000
  N   N80       1.0  0.31210  0.95123  0.36793  1.0000
  C   C105      1.0  0.33280  0.97851  0.36900  1.0000
  N   N81       1.0  0.32952  0.02665  0.36391  1.0000
  C   C106      1.0  0.70304  0.96020  0.35881  1.0000
  N   N82       1.0  0.72354  0.98970  0.35972  1.0000
  C   C107      1.0  0.72146  0.03911  0.36436  1.0000
  N   N83       1.0  0.69815  0.05787  0.36568  1.0000
  C   C108      1.0  0.67740  0.03069  0.36628  1.0000
  N   N84       1.0  0.68062  0.98250  0.36213  1.0000
  N   N85       1.0  0.48136  0.49681  0.36219  1.0000
  C   C109      1.0  0.49100  0.54159  0.37077  1.0000
  H   H37       1.0  0.48003  0.56822  0.39672  1.0000
  C   C110      1.0  0.01587  0.95858  0.35774  1.0000
  C   C111      1.0  0.99391  0.04976  0.33892  1.0000
  N   N86       1.0  0.98114  0.01179  0.37257  1.0000
  C   C112      1.0  0.99072  0.96691  0.38434  1.0000
  C   C113      1.0  0.97467  0.93354  0.42685  1.0000
  O   O13       1.0  0.95014  0.93496  0.40718  1.0000
  N   N87       1.0  0.98184  0.90593  0.49720  1.0000
  H   H38       1.0  0.99866  0.90735  0.52083  1.0000
  H   H39       1.0  0.96982  0.88591  0.52854  1.0000
  C   C114      1.0  0.42119  0.35164  0.36455  1.0000
  C   C115      1.0  0.36975  0.33188  0.35394  1.0000
  N   N88       1.0  0.38627  0.29992  0.38823  1.0000
  C   C116      1.0  0.41109  0.30728  0.39669  1.0000
  C   C117      1.0  0.42403  0.27031  0.44259  1.0000
  O   O14       1.0  0.41743  0.22398  0.42761  1.0000
  N   N89       1.0  0.43952  0.27941  0.51221  1.0000
  H   H40       1.0  0.44293  0.31209  0.53211  1.0000
  H   H41       1.0  0.44674  0.25298  0.54627  1.0000
  C   C118      1.0  0.58891  0.65735  0.37162  1.0000
  C   C119      1.0  0.64025  0.67727  0.35726  1.0000
  N   N90       1.0  0.62394  0.70903  0.39340  1.0000
  C   C120      1.0  0.59918  0.70155  0.40370  1.0000
  C   C121      1.0  0.58651  0.73810  0.45168  1.0000
  O   O15       1.0  0.59299  0.78458  0.43756  1.0000
  N   N91       1.0  0.57173  0.72839  0.52300  1.0000
  H   H42       1.0  0.56861  0.69555  0.54257  1.0000
  H   H43       1.0  0.56486  0.75451  0.55881  1.0000
  N   N92       1.0  0.10547  0.88418  0.35545  1.0000
  C   C122      1.0  0.13046  0.87675  0.35986  1.0000
  H   H44       1.0  0.14157  0.90285  0.38683  1.0000
  N   N93       1.0  0.90471  0.12497  0.35019  1.0000
  C   C123      1.0  0.87977  0.13251  0.35656  1.0000
  H   H45       1.0  0.86881  0.10657  0.38488  1.0000
  N   N94       1.0  0.51132  0.20534  0.36465  1.0000
  C   C124      1.0  0.49534  0.24232  0.36972  1.0000
  H   H46       1.0  0.47734  0.23564  0.38751  1.0000
  N   N95       1.0  0.49896  0.80285  0.38607  1.0000
  C   C125      1.0  0.51472  0.76550  0.38994  1.0000
  H   H47       1.0  0.53267  0.77159  0.40895  1.0000
  C   C126      1.0  0.97435  0.70817  0.34643  1.0000
  C   C127      1.0  0.00589  0.78849  0.33830  1.0000
  N   N96       1.0  0.98147  0.79239  0.36137  1.0000
  C   C128      1.0  0.96512  0.75486  0.36644  1.0000
  C   C129      1.0  0.94094  0.76544  0.39771  1.0000
  O   O16       1.0  0.93068  0.80801  0.37366  1.0000
  N   N97       1.0  0.92937  0.73966  0.46253  1.0000
  H   H48       1.0  0.93742  0.71253  0.49180  1.0000
  H   H49       1.0  0.91362  0.75069  0.48694  1.0000
  C   C130      1.0  0.03535  0.30087  0.32630  1.0000
  C   C131      1.0  0.00424  0.21984  0.32120  1.0000
  N   N98       1.0  0.02861  0.21671  0.34541  1.0000
  C   C132      1.0  0.04473  0.25466  0.34923  1.0000
  C   C133      1.0  0.06886  0.24516  0.38203  1.0000
  O   O17       1.0  0.07972  0.20299  0.35904  1.0000
  N   N99       1.0  0.07969  0.27132  0.44801  1.0000
  H   H50       1.0  0.07110  0.29803  0.47661  1.0000
  H   H51       1.0  0.09536  0.26089  0.47394  1.0000
  N   N100      1.0  0.32958  0.17546  0.36562  1.0000
  C   C134      1.0  0.32952  0.12693  0.37213  1.0000
  H   H52       1.0  0.34583  0.11056  0.38897  1.0000
  N   N101      1.0  0.68051  0.83367  0.36686  1.0000
  C   C135      1.0  0.68061  0.88221  0.37312  1.0000
  H   H53       1.0  0.66434  0.89868  0.39030  1.0000
  C   C136      1.0  0.20033  0.70323  0.34320  1.0000
  C   C137      1.0  0.20263  0.60066  0.33063  1.0000
  N   N102      1.0  0.22273  0.62810  0.35265  1.0000
  C   C138      1.0  0.22281  0.67744  0.36003  1.0000
  C   C139      1.0  0.24521  0.69862  0.38953  1.0000
  O   O18       1.0  0.26685  0.68060  0.35783  1.0000
  N   N103      1.0  0.24628  0.72848  0.46133  1.0000
  H   H54       1.0  0.23143  0.73747  0.49460  1.0000
  H   H55       1.0  0.26225  0.73896  0.48467  1.0000
  C   C140      1.0  0.80975  0.30583  0.34245  1.0000
  C   C141      1.0  0.80737  0.40840  0.33046  1.0000
  N   N104      1.0  0.78731  0.38089  0.35263  1.0000
  C   C142      1.0  0.78727  0.33155  0.35976  1.0000
  C   C143      1.0  0.76491  0.31026  0.38934  1.0000
  O   O19       1.0  0.74321  0.32837  0.35834  1.0000
  N   N105      1.0  0.76389  0.28034  0.46109  1.0000
  H   H56       1.0  0.77877  0.27147  0.49429  1.0000
  H   H57       1.0  0.74794  0.27002  0.48484  1.0000
  N   N106      1.0  0.26421  0.45051  0.35001  1.0000
  C   C144      1.0  0.28432  0.42098  0.35711  1.0000
  H   H58       1.0  0.30057  0.43455  0.38195  1.0000
  N   N107      1.0  0.74570  0.55849  0.35111  1.0000
  C   C145      1.0  0.72560  0.58807  0.35824  1.0000
  H   H59       1.0  0.70942  0.57463  0.38383  1.0000
  C   C146      1.0  0.26848  0.93638  0.36817  1.0000
  C   C147      1.0  0.22801  0.87179  0.35265  1.0000
  N   N108      1.0  0.25041  0.85797  0.38507  1.0000
  C   C148      1.0  0.27049  0.88707  0.39533  1.0000
  C   C149      1.0  0.29089  0.86491  0.43888  1.0000
  O   O20       1.0  0.29668  0.81892  0.41716  1.0000
  N   N109      1.0  0.30176  0.88410  0.51269  1.0000
  H   H60       1.0  0.29647  0.91490  0.53714  1.0000
  H   H61       1.0  0.31454  0.86630  0.54481  1.0000
  C   C150      1.0  0.74176  0.07248  0.36783  1.0000
  C   C151      1.0  0.78217  0.13719  0.35211  1.0000
  N   N110      1.0  0.75982  0.15086  0.38522  1.0000
  C   C152      1.0  0.73978  0.12166  0.39572  1.0000
  C   C153      1.0  0.71939  0.14360  0.43973  1.0000
  O   O21       1.0  0.71374  0.18986  0.41967  1.0000
  N   N111      1.0  0.70836  0.12384  0.51271  1.0000
  H   H62       1.0  0.71359  0.09282  0.53639  1.0000
  H   H63       1.0  0.69564  0.14153  0.54536  1.0000
  N   N112      1.0  0.14936  0.41256  0.34224  1.0000
  C   C154      1.0  0.12675  0.39068  0.34544  1.0000
  H   H64       1.0  0.12511  0.35710  0.37298  1.0000
  N   N113      1.0  0.86022  0.59651  0.34913  1.0000
  C   C155      1.0  0.88276  0.61846  0.35527  1.0000
  H   H65       1.0  0.88414  0.65158  0.38485  1.0000
  C   C156      1.0  0.35676  0.95795  0.37702  1.0000
  C   C157      1.0  0.40430  0.91697  0.36900  1.0000
  N   N114      1.0  0.40006  0.96155  0.40316  1.0000
  C   C158      1.0  0.37770  0.98327  0.41080  1.0000
  C   C159      1.0  0.37772  0.02802  0.45641  1.0000
  O   O22       1.0  0.39708  0.05833  0.44365  1.0000
  N   N115      1.0  0.36175  0.03809  0.52409  1.0000
  H   H66       1.0  0.34912  0.01522  0.54290  1.0000
  H   H67       1.0  0.36348  0.06777  0.55831  1.0000
  C   C160      1.0  0.65345  0.05147  0.37212  1.0000
  C   C161      1.0  0.60605  0.09244  0.35766  1.0000
  N   N116      1.0  0.60993  0.04823  0.39403  1.0000
  C   C162      1.0  0.63224  0.02665  0.40506  1.0000
  C   C163      1.0  0.63192  0.98233  0.45214  1.0000
  O   O23       1.0  0.61250  0.95213  0.43973  1.0000
  N   N117      1.0  0.64762  0.97265  0.52085  1.0000
  H   H68       1.0  0.66021  0.99560  0.53969  1.0000
  H   H69       1.0  0.64562  0.94339  0.55612  1.0000
  C   C164      1.0  0.98804  0.54210  0.36582  1.0000
  C   C165      1.0  0.02171  0.46722  0.34278  1.0000
  N   N118      1.0  0.02899  0.51058  0.37491  1.0000
  C   C166      1.0  0.01355  0.54842  0.38848  1.0000
  C   C167      1.0  0.02455  0.58944  0.42865  1.0000
  O   O24       1.0  0.04798  0.60152  0.40478  1.0000
  N   N119      1.0  0.01450  0.61208  0.50054  1.0000
  H   H70       1.0  0.99890  0.60148  0.52691  1.0000
  H   H71       1.0  0.02343  0.63805  0.53007  1.0000
  N   N120      1.0  0.52928  0.99843  0.35249  1.0000
  C   C168      1.0  0.51375  0.96073  0.36308  1.0000
  H   H72       1.0  0.52059  0.92903  0.38779  1.0000
