data_image0
_chemical_formula_structural       C3NC3NC5NC5NC36H26C4H4C3NC3NC5NC5NC36H26C4H4C3NC3NC5NC5NC36H26C4H4CNCNHCNCNHCNCNHCNCNHCNCNHCNCNHC16H16C16H16C16H16CNCHNCNCHNCNCHNCNCHNCNCHNCNCHN
_chemical_formula_sum              "C240 N36 H150"
_cell_length_a       66.5118
_cell_length_b       66.5118
_cell_length_c       14.9886
_cell_angle_alpha    89.7092
_cell_angle_beta     90.2908
_cell_angle_gamma    120

_space_group_name_H-M_alt    "P 1"
_space_group_IT_number       1

loop_
  _space_group_symop_operation_xyz
  'x, y, z'

loop_
  _atom_site_type_symbol
  _atom_site_label
  _atom_site_symmetry_multiplicity
  _atom_site_fract_x
  _atom_site_fract_y
  _atom_site_fract_z
  _atom_site_occupancy
  C   C1        1.0  0.02150  0.49252  0.32199  1.0000
  C   C2        1.0  0.04545  0.50507  0.32104  1.0000
  C   C3        1.0  0.05240  0.52868  0.32037  1.0000
  N   N1        1.0  0.03248  0.52956  0.32113  1.0000
  C   C4        1.0  0.01327  0.50818  0.32139  1.0000
  C   C5        1.0  0.98945  0.50188  0.32039  1.0000
  C   C6        1.0  0.98111  0.51780  0.31912  1.0000
  N   N2        1.0  0.99369  0.54123  0.32032  1.0000
  C   C7        1.0  0.98004  0.55091  0.31756  1.0000
  C   C8        1.0  0.95719  0.53248  0.31455  1.0000
  C   C9        1.0  0.95785  0.51207  0.31568  1.0000
  C   C10       1.0  0.98710  0.57489  0.31747  1.0000
  C   C11       1.0  0.01053  0.59333  0.31963  1.0000
  N   N3        1.0  0.03045  0.59245  0.32011  1.0000
  C   C12       1.0  0.04965  0.61383  0.32106  1.0000
  C   C13       1.0  0.04143  0.62948  0.32227  1.0000
  C   C14       1.0  0.01748  0.61694  0.32121  1.0000
  C   C15       1.0  0.07348  0.62014  0.32032  1.0000
  C   C16       1.0  0.08182  0.60423  0.31945  1.0000
  N   N4        1.0  0.06923  0.58079  0.32063  1.0000
  C   C17       1.0  0.08288  0.57111  0.31847  1.0000
  C   C18       1.0  0.10574  0.58955  0.31600  1.0000
  C   C19       1.0  0.10508  0.60996  0.31667  1.0000
  C   C20       1.0  0.07583  0.54713  0.31843  1.0000
  C   C21       1.0  0.09363  0.54125  0.31319  1.0000
  C   C22       1.0  0.10177  0.53900  0.22917  1.0000
  C   C23       1.0  0.12005  0.53421  0.22341  1.0000
  C   C24       1.0  0.13069  0.53151  0.30118  1.0000
  C   C25       1.0  0.14990  0.52762  0.29470  1.0000
  C   C26       1.0  0.18830  0.51981  0.27893  1.0000
  C   C27       1.0  0.18705  0.53684  0.22629  1.0000
  C   C28       1.0  0.16822  0.54073  0.23431  1.0000
  C   C29       1.0  0.09032  0.64422  0.31901  1.0000
  C   C30       1.0  0.09738  0.65639  0.23728  1.0000
  C   C31       1.0  0.11421  0.68012  0.23586  1.0000
  C   C32       1.0  0.12450  0.69230  0.31582  1.0000
  C   C33       1.0  0.14207  0.71622  0.31373  1.0000
  C   C34       1.0  0.13962  0.73238  0.25971  1.0000
  C   C35       1.0  0.15744  0.75571  0.25436  1.0000
  C   C36       1.0  0.17838  0.76375  0.30288  1.0000
  C   C37       1.0  0.96931  0.58082  0.31203  1.0000
  C   C38       1.0  0.93276  0.59134  0.29934  1.0000
  C   C39       1.0  0.94405  0.58977  0.22194  1.0000
  C   C40       1.0  0.96207  0.58459  0.22804  1.0000
  C   C41       1.0  0.91392  0.59582  0.29234  1.0000
  C   C42       1.0  0.89623  0.58422  0.22778  1.0000
  C   C43       1.0  0.87780  0.58873  0.21935  1.0000
  C   C44       1.0  0.87632  0.60490  0.27574  1.0000
  C   C45       1.0  0.97259  0.47781  0.31907  1.0000
  C   C46       1.0  0.96527  0.46579  0.23731  1.0000
  C   C47       1.0  0.94825  0.44212  0.23588  1.0000
  C   C48       1.0  0.93802  0.42987  0.31584  1.0000
  C   C49       1.0  0.92017  0.40606  0.31371  1.0000
  C   C50       1.0  0.88325  0.35879  0.30261  1.0000
  C   C51       1.0  0.90407  0.36660  0.25405  1.0000
  C   C52       1.0  0.92218  0.38979  0.25951  1.0000
  H   H1        1.0  0.90615  0.35551  0.21296  1.0000
  H   H2        1.0  0.93691  0.39471  0.22308  1.0000
  H   H3        1.0  0.94294  0.43408  0.17531  1.0000
  H   H4        1.0  0.97210  0.47425  0.17830  1.0000
  H   H5        1.0  0.01189  0.47480  0.32191  1.0000
  H   H6        1.0  0.05587  0.49784  0.32051  1.0000
  H   H7        1.0  0.03202  0.54375  0.31977  1.0000
  H   H8        1.0  0.03091  0.57827  0.31776  1.0000
  H   H9        1.0  0.94354  0.49584  0.31355  1.0000
  H   H10       1.0  0.94233  0.53344  0.31177  1.0000
  H   H11       1.0  0.96975  0.58342  0.17076  1.0000
  H   H12       1.0  0.93933  0.59254  0.15997  1.0000
  H   H13       1.0  0.00706  0.62417  0.32140  1.0000
  H   H14       1.0  0.05103  0.64721  0.32311  1.0000
  H   H15       1.0  0.12060  0.58860  0.31387  1.0000
  H   H16       1.0  0.11939  0.62620  0.31483  1.0000
  H   H17       1.0  0.09046  0.64801  0.17828  1.0000
  H   H18       1.0  0.11931  0.68830  0.17531  1.0000
  H   H19       1.0  0.15506  0.76673  0.21340  1.0000
  H   H20       1.0  0.12478  0.72730  0.22336  1.0000
  H   H21       1.0  0.16817  0.55348  0.19591  1.0000
  H   H22       1.0  0.19992  0.54671  0.18167  1.0000
  H   H23       1.0  0.12549  0.53265  0.16138  1.0000
  H   H24       1.0  0.09464  0.54111  0.17166  1.0000
  H   H25       1.0  0.89644  0.57210  0.18653  1.0000
  H   H26       1.0  0.86537  0.57994  0.17171  1.0000
  C   C53       1.0  0.20679  0.51603  0.26775  1.0000
  C   C54       1.0  0.19640  0.78645  0.29114  1.0000
  C   C55       1.0  0.85820  0.60931  0.26447  1.0000
  C   C56       1.0  0.86496  0.33623  0.29083  1.0000
  H   H27       1.0  0.21326  0.51762  0.20667  1.0000
  H   H28       1.0  0.86485  0.32754  0.23671  1.0000
  H   H29       1.0  0.85233  0.60893  0.20291  1.0000
  H   H30       1.0  0.19649  0.79500  0.23621  1.0000
  C   C57       1.0  0.60165  0.62285  0.32608  1.0000
  C   C58       1.0  0.58911  0.63426  0.32514  1.0000
  C   C59       1.0  0.56550  0.61761  0.32452  1.0000
  N   N5        1.0  0.56462  0.59680  0.32530  1.0000
  C   C60       1.0  0.58599  0.59897  0.32552  1.0000
  C   C61       1.0  0.59229  0.58144  0.32448  1.0000
  C   C62       1.0  0.57637  0.55719  0.32324  1.0000
  N   N6        1.0  0.55294  0.54634  0.32446  1.0000
  C   C63       1.0  0.54325  0.52301  0.32167  1.0000
  C   C64       1.0  0.56167  0.51859  0.31864  1.0000
  C   C65       1.0  0.58209  0.53966  0.31971  1.0000
  C   C66       1.0  0.51927  0.50610  0.32153  1.0000
  C   C67       1.0  0.50083  0.51108  0.32364  1.0000
  N   N7        1.0  0.50171  0.53188  0.32416  1.0000
  C   C68       1.0  0.48034  0.52972  0.32507  1.0000
  C   C69       1.0  0.46468  0.50583  0.32613  1.0000
  C   C70       1.0  0.47722  0.49443  0.32508  1.0000
  C   C71       1.0  0.47403  0.54724  0.32442  1.0000
  C   C72       1.0  0.48995  0.57149  0.32358  1.0000
  N   N8        1.0  0.51338  0.58233  0.32478  1.0000
  C   C73       1.0  0.52307  0.60567  0.32262  1.0000
  C   C74       1.0  0.50463  0.61009  0.32015  1.0000
  C   C75       1.0  0.48422  0.58903  0.32080  1.0000
  C   C76       1.0  0.54705  0.62259  0.32257  1.0000
  C   C77       1.0  0.55294  0.64629  0.31727  1.0000
  C   C78       1.0  0.55517  0.65685  0.23322  1.0000
  C   C79       1.0  0.55996  0.67993  0.22739  1.0000
  C   C80       1.0  0.56267  0.69311  0.30513  1.0000
  C   C81       1.0  0.56657  0.71622  0.29858  1.0000
  C   C82       1.0  0.57443  0.76248  0.28260  1.0000
  C   C83       1.0  0.55737  0.74431  0.23006  1.0000
  C   C84       1.0  0.55346  0.72157  0.23820  1.0000
  C   C85       1.0  0.44995  0.54000  0.32287  1.0000
  C   C86       1.0  0.43782  0.53503  0.24103  1.0000
  C   C87       1.0  0.41409  0.52814  0.23935  1.0000
  C   C88       1.0  0.40187  0.52610  0.31915  1.0000
  C   C89       1.0  0.37795  0.51973  0.31678  1.0000
  C   C90       1.0  0.36182  0.50119  0.26285  1.0000
  C   C91       1.0  0.33850  0.49568  0.25713  1.0000
  C   C92       1.0  0.33041  0.50850  0.30518  1.0000
  C   C93       1.0  0.51334  0.48239  0.31605  1.0000
  C   C94       1.0  0.50280  0.43535  0.30328  1.0000
  C   C95       1.0  0.50437  0.44839  0.22591  1.0000
  C   C96       1.0  0.50956  0.47158  0.23204  1.0000
  C   C97       1.0  0.49832  0.41204  0.29625  1.0000
  C   C98       1.0  0.50992  0.40611  0.23166  1.0000
  C   C99       1.0  0.50540  0.38318  0.22320  1.0000
  C   C100      1.0  0.48923  0.36539  0.27958  1.0000
  C   C101      1.0  0.61636  0.58866  0.32291  1.0000
  C   C102      1.0  0.62834  0.59360  0.24105  1.0000
  C   C103      1.0  0.65201  0.60025  0.23935  1.0000
  C   C104      1.0  0.66430  0.60205  0.31914  1.0000
  C   C105      1.0  0.68812  0.60804  0.31671  1.0000
  C   C106      1.0  0.73539  0.61846  0.30485  1.0000
  C   C107      1.0  0.72754  0.63161  0.25681  1.0000
  C   C108      1.0  0.70434  0.62650  0.26263  1.0000
  H   H31       1.0  0.73859  0.64492  0.21581  1.0000
  H   H32       1.0  0.69939  0.63642  0.22655  1.0000
  H   H33       1.0  0.66003  0.60319  0.17870  1.0000
  H   H34       1.0  0.61985  0.59215  0.18215  1.0000
  H   H35       1.0  0.61938  0.63097  0.32595  1.0000
  H   H36       1.0  0.59634  0.65192  0.32457  1.0000
  H   H37       1.0  0.55042  0.58215  0.32396  1.0000
  H   H38       1.0  0.51590  0.54653  0.32215  1.0000
  H   H39       1.0  0.59832  0.54159  0.31756  1.0000
  H   H40       1.0  0.56071  0.50278  0.31578  1.0000
  H   H41       1.0  0.51074  0.48057  0.17477  1.0000
  H   H42       1.0  0.50161  0.44106  0.16392  1.0000
  H   H43       1.0  0.46999  0.47677  0.32523  1.0000
  H   H44       1.0  0.44695  0.49771  0.32697  1.0000
  H   H45       1.0  0.50559  0.62591  0.31802  1.0000
  H   H46       1.0  0.46798  0.58710  0.31896  1.0000
  H   H47       1.0  0.44623  0.53659  0.18214  1.0000
  H   H48       1.0  0.40594  0.52515  0.17873  1.0000
  H   H49       1.0  0.32751  0.48234  0.21625  1.0000
  H   H50       1.0  0.36694  0.49150  0.22682  1.0000
  H   H51       1.0  0.54070  0.70886  0.19986  1.0000
  H   H52       1.0  0.54751  0.74742  0.18545  1.0000
  H   H53       1.0  0.56150  0.68706  0.16535  1.0000
  H   H54       1.0  0.55303  0.64772  0.17574  1.0000
  H   H55       1.0  0.52203  0.41853  0.19041  1.0000
  H   H56       1.0  0.51419  0.37965  0.17553  1.0000
  C   C109      1.0  0.57825  0.78480  0.27129  1.0000
  C   C110      1.0  0.30771  0.50382  0.29302  1.0000
  C   C111      1.0  0.48482  0.34289  0.26829  1.0000
  C   C112      1.0  0.75795  0.62279  0.29266  1.0000
  H   H57       1.0  0.57663  0.78979  0.21021  1.0000
  H   H58       1.0  0.76669  0.63175  0.23902  1.0000
  H   H59       1.0  0.48517  0.33755  0.20669  1.0000
  H   H60       1.0  0.29914  0.49526  0.23850  1.0000
  C   C113      1.0  0.47130  0.07264  0.32959  1.0000
  C   C114      1.0  0.45989  0.04868  0.32853  1.0000
  C   C115      1.0  0.47655  0.04174  0.32818  1.0000
  N   N9        1.0  0.49735  0.06166  0.32925  1.0000
  C   C116      1.0  0.49518  0.08087  0.32941  1.0000
  C   C117      1.0  0.51271  0.10470  0.32859  1.0000
  C   C118      1.0  0.53696  0.11304  0.32734  1.0000
  N   N10       1.0  0.54781  0.10045  0.32847  1.0000
  C   C119      1.0  0.57114  0.11411  0.32550  1.0000
  C   C120      1.0  0.57555  0.13696  0.32243  1.0000
  C   C121      1.0  0.55448  0.13630  0.32378  1.0000
  C   C122      1.0  0.58806  0.10705  0.32518  1.0000
  C   C123      1.0  0.58309  0.08363  0.32749  1.0000
  N   N11       1.0  0.56229  0.06370  0.32823  1.0000
  C   C124      1.0  0.56446  0.04450  0.32909  1.0000
  C   C125      1.0  0.58835  0.05273  0.33012  1.0000
  C   C126      1.0  0.59975  0.07668  0.32886  1.0000
  C   C127      1.0  0.54695  0.02067  0.32837  1.0000
  C   C128      1.0  0.52270  0.01233  0.32750  1.0000
  N   N12       1.0  0.51185  0.02492  0.32866  1.0000
  C   C129      1.0  0.48852  0.01127  0.32641  1.0000
  C   C130      1.0  0.48410  0.98841  0.32394  1.0000
  C   C131      1.0  0.50516  0.98907  0.32468  1.0000
  C   C132      1.0  0.47159  0.01831  0.32624  1.0000
  C   C133      1.0  0.44790  0.00051  0.32037  1.0000
  C   C134      1.0  0.43750  0.99240  0.23605  1.0000
  C   C135      1.0  0.41444  0.97410  0.22964  1.0000
  C   C136      1.0  0.40113  0.96342  0.30704  1.0000
  C   C137      1.0  0.37805  0.94419  0.29989  1.0000
  C   C138      1.0  0.33185  0.90579  0.28246  1.0000
  C   C139      1.0  0.35017  0.90706  0.23081  1.0000
  C   C140      1.0  0.37288  0.92589  0.23966  1.0000
  C   C141      1.0  0.55419  0.00384  0.32684  1.0000
  C   C142      1.0  0.55916  0.99686  0.24500  1.0000
  C   C143      1.0  0.56607  0.98004  0.24332  1.0000
  C   C144      1.0  0.56809  0.96966  0.32311  1.0000
  C   C145      1.0  0.57445  0.95211  0.32073  1.0000
  C   C146      1.0  0.59300  0.95465  0.26683  1.0000
  C   C147      1.0  0.59850  0.93684  0.26108  1.0000
  C   C148      1.0  0.58567  0.91582  0.30908  1.0000
  C   C149      1.0  0.61175  0.12483  0.31911  1.0000
  C   C150      1.0  0.65874  0.16142  0.30502  1.0000
  C   C151      1.0  0.64556  0.15005  0.22801  1.0000
  C   C152      1.0  0.62239  0.13201  0.23479  1.0000
  C   C153      1.0  0.68201  0.18028  0.29731  1.0000
  C   C154      1.0  0.68776  0.19792  0.23270  1.0000
  C   C155      1.0  0.71066  0.21637  0.22352  1.0000
  C   C156      1.0  0.72860  0.21792  0.27917  1.0000
  C   C157      1.0  0.50548  0.12155  0.32697  1.0000
  C   C158      1.0  0.50055  0.12877  0.24509  1.0000
  C   C159      1.0  0.49390  0.14579  0.24334  1.0000
  C   C160      1.0  0.49211  0.15613  0.32311  1.0000
  C   C161      1.0  0.48614  0.17397  0.32062  1.0000
  C   C162      1.0  0.47575  0.21087  0.30866  1.0000
  C   C163      1.0  0.46259  0.18997  0.26063  1.0000
  C   C164      1.0  0.46769  0.17187  0.26650  1.0000
  H   H61       1.0  0.44929  0.18782  0.21960  1.0000
  H   H62       1.0  0.45777  0.15708  0.23042  1.0000
  H   H63       1.0  0.49100  0.15104  0.18268  1.0000
  H   H64       1.0  0.50202  0.12188  0.18620  1.0000
  H   H65       1.0  0.46317  0.08224  0.32942  1.0000
  H   H66       1.0  0.44224  0.03826  0.32775  1.0000
  H   H67       1.0  0.51201  0.06213  0.32843  1.0000
  H   H68       1.0  0.54763  0.06324  0.32600  1.0000
  H   H69       1.0  0.55255  0.15060  0.32145  1.0000
  H   H70       1.0  0.59136  0.15182  0.31938  1.0000
  H   H71       1.0  0.61330  0.12428  0.17776  1.0000
  H   H72       1.0  0.65277  0.15472  0.16582  1.0000
  H   H73       1.0  0.61740  0.08711  0.32879  1.0000
  H   H74       1.0  0.59648  0.04313  0.33071  1.0000
  H   H75       1.0  0.46828  0.97355  0.32176  1.0000
  H   H76       1.0  0.50710  0.97476  0.32284  1.0000
  H   H77       1.0  0.55760  0.00385  0.18610  1.0000
  H   H78       1.0  0.56904  0.97501  0.18269  1.0000
  H   H79       1.0  0.61184  0.93929  0.22017  1.0000
  H   H80       1.0  0.60269  0.96955  0.23081  1.0000
  H   H81       1.0  0.38569  0.92595  0.20189  1.0000
  H   H82       1.0  0.34719  0.89421  0.18628  1.0000
  H   H83       1.0  0.40744  0.96867  0.16741  1.0000
  H   H84       1.0  0.44674  0.99955  0.17880  1.0000
  H   H85       1.0  0.67524  0.19767  0.19197  1.0000
  H   H86       1.0  0.71405  0.22876  0.17586  1.0000
  C   C165      1.0  0.30956  0.88733  0.27032  1.0000
  C   C166      1.0  0.59033  0.89782  0.29685  1.0000
  C   C167      1.0  0.75106  0.23605  0.26709  1.0000
  C   C168      1.0  0.47145  0.22914  0.29640  1.0000
  H   H87       1.0  0.30480  0.88081  0.20919  1.0000
  H   H88       1.0  0.46251  0.22905  0.24271  1.0000
  H   H89       1.0  0.75619  0.24195  0.20539  1.0000
  H   H90       1.0  0.59890  0.89794  0.24233  1.0000
  C   C169      1.0  0.27708  0.50918  0.34389  1.0000
  N   N13       1.0  0.26300  0.50106  0.27101  1.0000
  C   C170      1.0  0.24269  0.50115  0.26578  1.0000
  N   N14       1.0  0.29781  0.51100  0.34761  1.0000
  H   H91       1.0  0.23291  0.49498  0.20915  1.0000
  C   C171      1.0  0.58499  0.86172  0.34765  1.0000
  N   N15       1.0  0.59310  0.85593  0.27474  1.0000
  C   C172      1.0  0.59302  0.83555  0.26943  1.0000
  N   N16       1.0  0.58316  0.88061  0.35142  1.0000
  H   H92       1.0  0.59917  0.83207  0.21276  1.0000
  C   C173      1.0  0.23230  0.81710  0.34355  1.0000
  N   N17       1.0  0.23838  0.83115  0.27050  1.0000
  C   C174      1.0  0.25880  0.85145  0.26597  1.0000
  N   N18       1.0  0.21339  0.79637  0.34665  1.0000
  H   H93       1.0  0.26252  0.86120  0.20916  1.0000
  C   C175      1.0  0.78808  0.61624  0.34206  1.0000
  N   N19       1.0  0.80232  0.62488  0.27007  1.0000
  C   C176      1.0  0.82242  0.62440  0.26443  1.0000
  N   N20       1.0  0.76754  0.61482  0.34603  1.0000
  H   H94       1.0  0.83235  0.63103  0.20853  1.0000
  C   C177      1.0  0.47801  0.26571  0.34577  1.0000
  N   N21       1.0  0.46935  0.27147  0.27378  1.0000
  C   C178      1.0  0.46980  0.29204  0.26817  1.0000
  N   N22       1.0  0.47941  0.24657  0.34977  1.0000
  H   H95       1.0  0.46317  0.29547  0.21228  1.0000
  C   C179      1.0  0.82859  0.30609  0.34179  1.0000
  N   N23       1.0  0.82254  0.29188  0.26960  1.0000
  C   C180      1.0  0.80193  0.27178  0.26471  1.0000
  N   N24       1.0  0.84774  0.32663  0.34516  1.0000
  H   H96       1.0  0.79827  0.26190  0.20858  1.0000
  C   C181      1.0  0.12209  0.53339  0.38516  1.0000
  C   C182      1.0  0.10386  0.53829  0.39123  1.0000
  C   C183      1.0  0.15129  0.51068  0.34778  1.0000
  C   C184      1.0  0.17017  0.50678  0.33998  1.0000
  C   C185      1.0  0.11725  0.67990  0.39743  1.0000
  C   C186      1.0  0.10034  0.65619  0.39917  1.0000
  C   C187      1.0  0.18071  0.74764  0.35783  1.0000
  C   C188      1.0  0.16285  0.72434  0.36337  1.0000
  C   C189      1.0  0.95840  0.58258  0.38975  1.0000
  C   C190      1.0  0.94040  0.58784  0.38337  1.0000
  C   C191      1.0  0.89382  0.61644  0.34088  1.0000
  C   C192      1.0  0.91231  0.61192  0.34906  1.0000
  C   C193      1.0  0.96266  0.46575  0.39923  1.0000
  C   C194      1.0  0.94555  0.44210  0.39749  1.0000
  C   C195      1.0  0.89951  0.39817  0.36339  1.0000
  C   C196      1.0  0.88136  0.37500  0.35780  1.0000
  H   H97       1.0  0.86645  0.37029  0.39265  1.0000
  H   H98       1.0  0.89708  0.40948  0.40168  1.0000
  H   H99       1.0  0.93876  0.43382  0.45681  1.0000
  H   H100      1.0  0.96769  0.47413  0.45929  1.0000
  H   H101      1.0  0.96328  0.57976  0.45133  1.0000
  H   H102      1.0  0.93244  0.58839  0.44082  1.0000
  H   H103      1.0  0.09546  0.64770  0.45921  1.0000
  H   H104      1.0  0.12408  0.68811  0.45675  1.0000
  H   H105      1.0  0.16560  0.71311  0.40148  1.0000
  H   H106      1.0  0.19575  0.75253  0.39261  1.0000
  H   H107      1.0  0.09835  0.54005  0.45285  1.0000
  H   H108      1.0  0.12958  0.53201  0.44296  1.0000
  H   H109      1.0  0.17037  0.49409  0.37830  1.0000
  H   H110      1.0  0.13824  0.50058  0.39127  1.0000
  H   H111      1.0  0.92493  0.62098  0.39564  1.0000
  H   H112      1.0  0.89346  0.62850  0.38205  1.0000
  C   C197      1.0  0.56079  0.68245  0.38914  1.0000
  C   C198      1.0  0.55592  0.65931  0.39527  1.0000
  C   C199      1.0  0.58354  0.73445  0.35155  1.0000
  C   C200      1.0  0.58746  0.75725  0.34366  1.0000
  C   C201      1.0  0.41423  0.53112  0.40088  1.0000
  C   C202      1.0  0.43794  0.53791  0.40288  1.0000
  C   C203      1.0  0.34648  0.52686  0.36006  1.0000
  C   C204      1.0  0.36979  0.53233  0.36591  1.0000
  C   C205      1.0  0.51157  0.46953  0.39376  1.0000
  C   C206      1.0  0.50631  0.44629  0.38732  1.0000
  C   C207      1.0  0.47770  0.37121  0.34477  1.0000
  C   C208      1.0  0.48221  0.39419  0.35294  1.0000
  C   C209      1.0  0.62846  0.59055  0.40292  1.0000
  C   C210      1.0  0.65211  0.59710  0.40090  1.0000
  C   C211      1.0  0.69605  0.59512  0.36592  1.0000
  C   C212      1.0  0.71923  0.60018  0.35993  1.0000
  H   H113      1.0  0.72396  0.58987  0.39448  1.0000
  H   H114      1.0  0.68477  0.58126  0.40412  1.0000
  H   H115      1.0  0.66042  0.59840  0.46010  1.0000
  H   H116      1.0  0.62010  0.58701  0.46304  1.0000
  H   H117      1.0  0.51440  0.47709  0.45533  1.0000
  H   H118      1.0  0.50575  0.43764  0.44476  1.0000
  H   H119      1.0  0.44640  0.54142  0.46300  1.0000
  H   H120      1.0  0.40598  0.52962  0.46009  1.0000
  H   H121      1.0  0.38098  0.54622  0.40408  1.0000
  H   H122      1.0  0.34156  0.53694  0.39458  1.0000
  H   H123      1.0  0.55416  0.65192  0.45691  1.0000
  H   H124      1.0  0.56221  0.69122  0.44691  1.0000
  H   H125      1.0  0.60017  0.77006  0.38189  1.0000
  H   H126      1.0  0.59364  0.73140  0.39504  1.0000
  H   H127      1.0  0.47316  0.39765  0.39955  1.0000
  H   H128      1.0  0.46564  0.35869  0.38590  1.0000
  C   C213      1.0  0.41161  0.97198  0.39131  1.0000
  C   C214      1.0  0.43473  0.99025  0.39803  1.0000
  C   C215      1.0  0.35968  0.94277  0.35207  1.0000
  C   C216      1.0  0.33691  0.92390  0.34340  1.0000
  C   C217      1.0  0.56307  0.97682  0.40485  1.0000
  C   C218      1.0  0.55628  0.99373  0.40685  1.0000
  C   C219      1.0  0.56732  0.91341  0.36401  1.0000
  C   C220      1.0  0.56187  0.93125  0.36991  1.0000
  C   C221      1.0  0.62476  0.13582  0.39646  1.0000
  C   C222      1.0  0.64797  0.15384  0.38938  1.0000
  C   C223      1.0  0.72296  0.20046  0.34437  1.0000
  C   C224      1.0  0.70001  0.18196  0.35331  1.0000
  C   C225      1.0  0.50359  0.13159  0.40696  1.0000
  C   C226      1.0  0.49705  0.14870  0.40489  1.0000
  C   C227      1.0  0.49906  0.19470  0.36986  1.0000
  C   C228      1.0  0.49403  0.21285  0.36375  1.0000
  H   H129      1.0  0.50433  0.22781  0.39834  1.0000
  H   H130      1.0  0.51292  0.19720  0.40806  1.0000
  H   H131      1.0  0.49574  0.15556  0.46408  1.0000
  H   H132      1.0  0.50711  0.12662  0.46710  1.0000
  H   H133      1.0  0.61731  0.13099  0.45825  1.0000
  H   H134      1.0  0.65673  0.16185  0.44658  1.0000
  H   H135      1.0  0.55277  0.99855  0.46696  1.0000
  H   H136      1.0  0.56456  0.96992  0.46405  1.0000
  H   H137      1.0  0.54795  0.92844  0.40793  1.0000
  H   H138      1.0  0.55721  0.89831  0.39838  1.0000
  H   H139      1.0  0.44200  0.99573  0.45986  1.0000
  H   H140      1.0  0.40273  0.96448  0.44887  1.0000
  H   H141      1.0  0.32399  0.92370  0.38098  1.0000
  H   H142      1.0  0.36260  0.95582  0.39536  1.0000
  H   H143      1.0  0.69668  0.16938  0.39991  1.0000
  H   H144      1.0  0.73558  0.20087  0.38500  1.0000
  C   C229      1.0  0.25035  0.51815  0.41190  1.0000
  N   N25       1.0  0.27053  0.51769  0.41308  1.0000
  C   C230      1.0  0.23573  0.51033  0.33635  1.0000
  H   H145      1.0  0.24646  0.52513  0.46514  1.0000
  N   N26       1.0  0.21711  0.51286  0.33460  1.0000
  C   C231      1.0  0.57601  0.82585  0.41553  1.0000
  N   N27       1.0  0.57647  0.84648  0.41679  1.0000
  C   C232      1.0  0.58381  0.81922  0.33991  1.0000
  H   H146      1.0  0.56903  0.81484  0.46874  1.0000
  N   N28       1.0  0.58133  0.79810  0.33817  1.0000
  C   C233      1.0  0.26789  0.84384  0.41320  1.0000
  N   N29       1.0  0.24724  0.82367  0.41364  1.0000
  C   C234      1.0  0.27484  0.85841  0.33747  1.0000
  H   H147      1.0  0.27869  0.84773  0.46709  1.0000
  N   N30       1.0  0.29598  0.87704  0.33659  1.0000
  C   C235      1.0  0.81418  0.60592  0.40827  1.0000
  N   N31       1.0  0.79423  0.60679  0.40988  1.0000
  C   C236      1.0  0.82897  0.61427  0.33357  1.0000
  H   H148      1.0  0.81777  0.59823  0.46044  1.0000
  N   N32       1.0  0.84739  0.61142  0.33147  1.0000
  C   C237      1.0  0.48828  0.30197  0.41202  1.0000
  N   N33       1.0  0.48743  0.28115  0.41364  1.0000
  C   C238      1.0  0.47990  0.30856  0.33736  1.0000
  H   H149      1.0  0.49593  0.31311  0.46426  1.0000
  N   N34       1.0  0.48274  0.32983  0.33527  1.0000
  C   C239      1.0  0.79257  0.27997  0.40970  1.0000
  N   N35       1.0  0.81341  0.29991  0.41058  1.0000
  C   C240      1.0  0.78567  0.26522  0.33484  1.0000
  H   H150      1.0  0.78163  0.27635  0.46264  1.0000
  N   N36       1.0  0.76439  0.24680  0.33358  1.0000
