data_image0
_chemical_formula_structural       C2NHCHC2NHCH3C4HC3H2C3HC3NH3C6N2H4C6N2H4C2H3NC3H3NC3H2NC2H3NC3H3NC3H3NC4H3C3H2C3H2C3H2C3H2C2H2NC3H3NC3H3NC3H3NC3H3NC3H3NC3NH3C6N2H4C6N2H4C2H3NC3H3NC3H2NC2H3NC3H3NC3H3NC4H3C3H2C3H2C3H2C3H2C2H2NC3H3NC3H3NC3H3NC3H3NC3H3NC6N2H3C6N2H4C6N2H4C2H3NC3H3NC3H3NC3H3NC3H3NC3H3NC4H2C3H2C3H2C3H2C3H2C3H2C3H3NC3H3NC3H3NC3H3NC3H3NC3H3NC6N2H3C6N2H4C6N2H4C2H3NC3H3NC3H3NC3H3NC3H3NC3H3NC4H2C3H2C3H2C3H2C3H2C3H2C3H3NC3H3NC3H3NC3H3NC3H3NC3H3N
_chemical_formula_sum              "C288 N72 H240"
_cell_length_a       46.1405
_cell_length_b       46.1405
_cell_length_c       14.9361
_cell_angle_alpha    90
_cell_angle_beta     90
_cell_angle_gamma    120

_space_group_name_H-M_alt    "P 1"
_space_group_IT_number       1

loop_
  _space_group_symop_operation_xyz
  'x, y, z'

loop_
  _atom_site_type_symbol
  _atom_site_label
  _atom_site_symmetry_multiplicity
  _atom_site_fract_x
  _atom_site_fract_y
  _atom_site_fract_z
  _atom_site_occupancy
  C   C1        1.0  0.02133  0.26156  0.31037  1.0000
  C   C2        1.0  0.04117  0.29742  0.29822  1.0000
  N   N1        1.0  0.02896  0.31469  0.25277  1.0000
  H   H1        1.0  0.04191  0.33875  0.24423  1.0000
  C   C3        1.0  0.03949  0.24504  0.33381  1.0000
  H   H2        1.0  0.02748  0.22000  0.34664  1.0000
  C   C4        1.0  0.02133  0.76156  0.31037  1.0000
  C   C5        1.0  0.04117  0.79741  0.29822  1.0000
  N   N2        1.0  0.02896  0.81468  0.25277  1.0000
  H   H3        1.0  0.04191  0.83875  0.24423  1.0000
  C   C6        1.0  0.03949  0.74504  0.33381  1.0000
  H   H4        1.0  0.02748  0.72000  0.34664  1.0000
  H   H5        1.0  0.00925  0.30295  0.21509  1.0000
  H   H6        1.0  0.00925  0.80295  0.21509  1.0000
  C   C7        1.0  0.07505  0.31538  0.32936  1.0000
  C   C8        1.0  0.07409  0.26208  0.35057  1.0000
  C   C9        1.0  0.07505  0.81538  0.32936  1.0000
  C   C10       1.0  0.07409  0.76208  0.35057  1.0000
  H   H7        1.0  0.08586  0.33310  0.15254  1.0000
  C   C11       1.0  0.09639  0.35057  0.33036  1.0000
  C   C12       1.0  0.09095  0.29714  0.35304  1.0000
  C   C13       1.0  0.09342  0.24616  0.35044  1.0000
  H   H8        1.0  0.07876  0.22989  0.53462  1.0000
  H   H9        1.0  0.08587  0.83310  0.15254  1.0000
  C   C14       1.0  0.09639  0.85058  0.33036  1.0000
  C   C15       1.0  0.09095  0.79714  0.35304  1.0000
  C   C16       1.0  0.09342  0.74616  0.35044  1.0000
  H   H10       1.0  0.07876  0.72989  0.53462  1.0000
  C   C17       1.0  0.48507  0.24263  0.31043  1.0000
  C   C18       1.0  0.43126  0.18884  0.32883  1.0000
  C   C19       1.0  0.46519  0.20678  0.29809  1.0000
  N   N3        1.0  0.47746  0.18951  0.25282  1.0000
  H   H11       1.0  0.99708  0.20130  0.21487  1.0000
  H   H12       1.0  0.46432  0.16549  0.24368  1.0000
  H   H13       1.0  0.50925  0.30295  0.21509  1.0000
  C   C20       1.0  0.26268  0.24349  0.31057  1.0000
  C   C21       1.0  0.31643  0.24342  0.32908  1.0000
  C   C22       1.0  0.29854  0.25945  0.29829  1.0000
  C   C23       1.0  0.24379  0.26086  0.31047  1.0000
  C   C24       1.0  0.20795  0.24491  0.29806  1.0000
  C   C25       1.0  0.19002  0.26089  0.32907  1.0000
  N   N4        1.0  0.31585  0.28901  0.25314  1.0000
  N   N5        1.0  0.19067  0.21544  0.25258  1.0000
  H   H14       1.0  0.30410  0.29687  0.21518  1.0000
  H   H15       1.0  0.33988  0.29989  0.24413  1.0000
  H   H16       1.0  0.16661  0.20437  0.24388  1.0000
  H   H17       1.0  0.20240  0.20744  0.21498  1.0000
  C   C26       1.0  0.26192  0.02026  0.31037  1.0000
  C   C27       1.0  0.26195  0.07408  0.32871  1.0000
  C   C28       1.0  0.24595  0.04014  0.29801  1.0000
  C   C29       1.0  0.24458  0.48400  0.31052  1.0000
  C   C30       1.0  0.26055  0.46412  0.29815  1.0000
  C   C31       1.0  0.24452  0.43017  0.32879  1.0000
  N   N6        1.0  0.21641  0.02788  0.25280  1.0000
  N   N7        1.0  0.29011  0.47638  0.25298  1.0000
  H   H18       1.0  0.20855  0.50822  0.21497  1.0000
  H   H19       1.0  0.20543  0.04093  0.24373  1.0000
  H   H20       1.0  0.30095  0.46322  0.24366  1.0000
  H   H21       1.0  0.29789  0.99598  0.21496  1.0000
  C   C32       1.0  0.14748  0.25134  0.16007  1.0000
  C   C33       1.0  0.13593  0.24634  0.25423  1.0000
  H   H22       1.0  0.12972  0.23002  0.12005  1.0000
  H   H23       1.0  0.17212  0.25391  0.15243  1.0000
  H   H24       1.0  0.14874  0.27399  0.13359  1.0000
  N   N8        1.0  0.10706  0.24683  0.26915  1.0000
  C   C34       1.0  0.15484  0.24705  0.33017  1.0000
  C   C35       1.0  0.25404  0.39711  0.16014  1.0000
  C   C36       1.0  0.25920  0.39074  0.25432  1.0000
  H   H25       1.0  0.27526  0.40053  0.11991  1.0000
  H   H26       1.0  0.25153  0.41921  0.15230  1.0000
  H   H27       1.0  0.23130  0.37569  0.13407  1.0000
  N   N9        1.0  0.25867  0.36139  0.26966  1.0000
  C   C37       1.0  0.25844  0.40888  0.33027  1.0000
  C   C38       1.0  0.10796  0.35772  0.16011  1.0000
  C   C39       1.0  0.11446  0.36936  0.25420  1.0000
  H   H28       1.0  0.10446  0.37547  0.11984  1.0000
  H   H29       1.0  0.12935  0.35639  0.13386  1.0000
  N   N10       1.0  0.14388  0.39815  0.26914  1.0000
  C   C40       1.0  0.35881  0.25295  0.16021  1.0000
  C   C41       1.0  0.37041  0.25796  0.25434  1.0000
  H   H30       1.0  0.37656  0.27426  0.12014  1.0000
  H   H31       1.0  0.33418  0.25040  0.15264  1.0000
  H   H32       1.0  0.35752  0.23028  0.13370  1.0000
  N   N11       1.0  0.39925  0.25741  0.26912  1.0000
  C   C42       1.0  0.35161  0.25724  0.33056  1.0000
  C   C43       1.0  0.25220  0.10699  0.15994  1.0000
  C   C44       1.0  0.24726  0.11354  0.25415  1.0000
  H   H33       1.0  0.23086  0.10345  0.12004  1.0000
  H   H34       1.0  0.25474  0.08490  0.15220  1.0000
  H   H35       1.0  0.27485  0.12838  0.13339  1.0000
  N   N12       1.0  0.24779  0.14291  0.26919  1.0000
  C   C45       1.0  0.24803  0.09535  0.33003  1.0000
  C   C46       1.0  0.39823  0.14622  0.16001  1.0000
  C   C47       1.0  0.39180  0.13470  0.25419  1.0000
  H   H36       1.0  0.40169  0.12843  0.11986  1.0000
  H   H37       1.0  0.42032  0.17084  0.15223  1.0000
  H   H38       1.0  0.37682  0.14752  0.13380  1.0000
  N   N13       1.0  0.36243  0.10587  0.26936  1.0000
  C   C48       1.0  0.40997  0.15364  0.33008  1.0000
  C   C49       1.0  0.46694  0.25916  0.33402  1.0000
  C   C50       1.0  0.43234  0.24216  0.35061  1.0000
  C   C51       1.0  0.41540  0.20710  0.35279  1.0000
  H   H39       1.0  0.47896  0.28421  0.34678  1.0000
  H   H40       1.0  0.39005  0.19458  0.36472  1.0000
  H   H41       1.0  0.11627  0.30967  0.36533  1.0000
  C   C52       1.0  0.24611  0.20881  0.33403  1.0000
  C   C53       1.0  0.26309  0.19121  0.35089  1.0000
  C   C54       1.0  0.29815  0.20932  0.35310  1.0000
  H   H42       1.0  0.22105  0.19580  0.34660  1.0000
  H   H43       1.0  0.31066  0.19651  0.36539  1.0000
  C   C55       1.0  0.20830  0.29504  0.35262  1.0000
  C   C56       1.0  0.24335  0.31317  0.35012  1.0000
  C   C57       1.0  0.26035  0.29553  0.33411  1.0000
  H   H44       1.0  0.19580  0.30787  0.36488  1.0000
  H   H45       1.0  0.28538  0.30851  0.34705  1.0000
  C   C58       1.0  0.29661  0.03840  0.33382  1.0000
  C   C59       1.0  0.31421  0.07303  0.35015  1.0000
  C   C60       1.0  0.29607  0.08994  0.35265  1.0000
  H   H46       1.0  0.30960  0.02636  0.34688  1.0000
  H   H47       1.0  0.30889  0.11527  0.36479  1.0000
  C   C61       1.0  0.21038  0.41430  0.35247  1.0000
  C   C62       1.0  0.19227  0.43124  0.35010  1.0000
  C   C63       1.0  0.20990  0.46587  0.33400  1.0000
  H   H48       1.0  0.19756  0.38896  0.36450  1.0000
  H   H49       1.0  0.19689  0.47791  0.34677  1.0000
  C   C64       1.0  0.11262  0.24762  0.42605  1.0000
  C   C65       1.0  0.10353  0.25085  0.51901  1.0000
  H   H50       1.0  0.10322  0.27419  0.52722  1.0000
  H   H51       1.0  0.12137  0.25076  0.56690  1.0000
  N   N14       1.0  0.14213  0.24859  0.41131  1.0000
  C   C66       1.0  0.25943  0.34842  0.35101  1.0000
  C   C67       1.0  0.25787  0.36623  0.42629  1.0000
  C   C68       1.0  0.25455  0.35386  0.51922  1.0000
  H   H52       1.0  0.23125  0.33018  0.52721  1.0000
  H   H53       1.0  0.25451  0.37173  0.56711  1.0000
  H   H54       1.0  0.27554  0.35013  0.53504  1.0000
  N   N15       1.0  0.25688  0.39476  0.41156  1.0000
  C   C69       1.0  0.15704  0.41199  0.35022  1.0000
  C   C70       1.0  0.13920  0.39279  0.42581  1.0000
  C   C71       1.0  0.15157  0.40197  0.51871  1.0000
  H   H55       1.0  0.17520  0.40223  0.52691  1.0000
  H   H56       1.0  0.13365  0.38420  0.56675  1.0000
  H   H57       1.0  0.15544  0.42677  0.53411  1.0000
  N   N16       1.0  0.11061  0.36328  0.41147  1.0000
  C   C72       1.0  0.41302  0.25809  0.35024  1.0000
  C   C73       1.0  0.39394  0.25680  0.42599  1.0000
  C   C74       1.0  0.40318  0.25372  0.51891  1.0000
  H   H58       1.0  0.40346  0.23037  0.52730  1.0000
  H   H59       1.0  0.38544  0.25392  0.56696  1.0000
  H   H60       1.0  0.42799  0.27469  0.53412  1.0000
  N   N17       1.0  0.36441  0.25584  0.41161  1.0000
  C   C75       1.0  0.24719  0.15596  0.35043  1.0000
  C   C76       1.0  0.24863  0.13815  0.42595  1.0000
  C   C77       1.0  0.25189  0.15043  0.51896  1.0000
  H   H61       1.0  0.27524  0.17405  0.52722  1.0000
  H   H62       1.0  0.25177  0.13247  0.56678  1.0000
  H   H63       1.0  0.23094  0.15426  0.53464  1.0000
  N   N18       1.0  0.24961  0.10961  0.41117  1.0000
  C   C78       1.0  0.34947  0.09224  0.35073  1.0000
  C   C79       1.0  0.36721  0.11155  0.42616  1.0000
  C   C80       1.0  0.35483  0.10253  0.51909  1.0000
  H   H64       1.0  0.33116  0.10218  0.52706  1.0000
  H   H65       1.0  0.37272  0.12043  0.56695  1.0000
  H   H66       1.0  0.35106  0.07779  0.53493  1.0000
  N   N19       1.0  0.39575  0.14105  0.41134  1.0000
  C   C81       1.0  0.48507  0.74263  0.31043  1.0000
  C   C82       1.0  0.43126  0.68884  0.32883  1.0000
  C   C83       1.0  0.46519  0.70678  0.29809  1.0000
  N   N20       1.0  0.47746  0.68951  0.25282  1.0000
  H   H67       1.0  0.99708  0.70130  0.21487  1.0000
  H   H68       1.0  0.46432  0.66549  0.24368  1.0000
  H   H69       1.0  0.50925  0.80295  0.21509  1.0000
  C   C84       1.0  0.26268  0.74349  0.31057  1.0000
  C   C85       1.0  0.31643  0.74342  0.32908  1.0000
  C   C86       1.0  0.29854  0.75945  0.29829  1.0000
  C   C87       1.0  0.24379  0.76086  0.31047  1.0000
  C   C88       1.0  0.20795  0.74491  0.29806  1.0000
  C   C89       1.0  0.19002  0.76089  0.32907  1.0000
  N   N21       1.0  0.31585  0.78901  0.25314  1.0000
  N   N22       1.0  0.19067  0.71544  0.25258  1.0000
  H   H70       1.0  0.30409  0.79687  0.21518  1.0000
  H   H71       1.0  0.33988  0.79989  0.24413  1.0000
  H   H72       1.0  0.16661  0.70437  0.24388  1.0000
  H   H73       1.0  0.20240  0.70744  0.21498  1.0000
  C   C90       1.0  0.26192  0.52026  0.31037  1.0000
  C   C91       1.0  0.26195  0.57407  0.32871  1.0000
  C   C92       1.0  0.24595  0.54014  0.29801  1.0000
  C   C93       1.0  0.24458  0.98400  0.31052  1.0000
  C   C94       1.0  0.26055  0.96412  0.29815  1.0000
  C   C95       1.0  0.24452  0.93017  0.32879  1.0000
  N   N23       1.0  0.21641  0.52788  0.25280  1.0000
  N   N24       1.0  0.29011  0.97638  0.25298  1.0000
  H   H74       1.0  0.20855  0.00822  0.21497  1.0000
  H   H75       1.0  0.20543  0.54093  0.24373  1.0000
  H   H76       1.0  0.30095  0.96322  0.24366  1.0000
  H   H77       1.0  0.29789  0.49598  0.21496  1.0000
  C   C96       1.0  0.14748  0.75134  0.16007  1.0000
  C   C97       1.0  0.13593  0.74634  0.25423  1.0000
  H   H78       1.0  0.12972  0.73002  0.12005  1.0000
  H   H79       1.0  0.17212  0.75390  0.15243  1.0000
  H   H80       1.0  0.14874  0.77400  0.13359  1.0000
  N   N25       1.0  0.10706  0.74683  0.26915  1.0000
  C   C98       1.0  0.15484  0.74705  0.33017  1.0000
  C   C99       1.0  0.25404  0.89711  0.16014  1.0000
  C   C100      1.0  0.25920  0.89074  0.25432  1.0000
  H   H81       1.0  0.27526  0.90053  0.11991  1.0000
  H   H82       1.0  0.25153  0.91921  0.15230  1.0000
  H   H83       1.0  0.23130  0.87569  0.13407  1.0000
  N   N26       1.0  0.25867  0.86139  0.26966  1.0000
  C   C101      1.0  0.25844  0.90889  0.33027  1.0000
  C   C102      1.0  0.10796  0.85772  0.16011  1.0000
  C   C103      1.0  0.11446  0.86936  0.25420  1.0000
  H   H84       1.0  0.10447  0.87547  0.11984  1.0000
  H   H85       1.0  0.12935  0.85639  0.13386  1.0000
  N   N27       1.0  0.14388  0.89815  0.26914  1.0000
  C   C104      1.0  0.35881  0.75295  0.16021  1.0000
  C   C105      1.0  0.37041  0.75796  0.25434  1.0000
  H   H86       1.0  0.37656  0.77426  0.12014  1.0000
  H   H87       1.0  0.33418  0.75040  0.15264  1.0000
  H   H88       1.0  0.35752  0.73028  0.13370  1.0000
  N   N28       1.0  0.39925  0.75741  0.26912  1.0000
  C   C106      1.0  0.35161  0.75724  0.33056  1.0000
  C   C107      1.0  0.25220  0.60699  0.15994  1.0000
  C   C108      1.0  0.24727  0.61354  0.25415  1.0000
  H   H89       1.0  0.23086  0.60345  0.12004  1.0000
  H   H90       1.0  0.25474  0.58490  0.15220  1.0000
  H   H91       1.0  0.27485  0.62838  0.13339  1.0000
  N   N29       1.0  0.24779  0.64291  0.26919  1.0000
  C   C109      1.0  0.24803  0.59535  0.33003  1.0000
  C   C110      1.0  0.39823  0.64622  0.16001  1.0000
  C   C111      1.0  0.39180  0.63469  0.25419  1.0000
  H   H92       1.0  0.40169  0.62843  0.11986  1.0000
  H   H93       1.0  0.42032  0.67084  0.15223  1.0000
  H   H94       1.0  0.37682  0.64752  0.13380  1.0000
  N   N30       1.0  0.36243  0.60587  0.26936  1.0000
  C   C112      1.0  0.40997  0.65364  0.33008  1.0000
  C   C113      1.0  0.46694  0.75916  0.33402  1.0000
  C   C114      1.0  0.43234  0.74216  0.35061  1.0000
  C   C115      1.0  0.41540  0.70710  0.35279  1.0000
  H   H95       1.0  0.47896  0.78421  0.34678  1.0000
  H   H96       1.0  0.39006  0.69458  0.36472  1.0000
  H   H97       1.0  0.11627  0.80967  0.36533  1.0000
  C   C116      1.0  0.24611  0.70881  0.33403  1.0000
  C   C117      1.0  0.26309  0.69121  0.35089  1.0000
  C   C118      1.0  0.29815  0.70932  0.35310  1.0000
  H   H98       1.0  0.22105  0.69580  0.34660  1.0000
  H   H99       1.0  0.31066  0.69651  0.36539  1.0000
  C   C119      1.0  0.20830  0.79504  0.35262  1.0000
  C   C120      1.0  0.24335  0.81317  0.35012  1.0000
  C   C121      1.0  0.26035  0.79553  0.33411  1.0000
  H   H100      1.0  0.19580  0.80787  0.36488  1.0000
  H   H101      1.0  0.28539  0.80851  0.34705  1.0000
  C   C122      1.0  0.29661  0.53840  0.33382  1.0000
  C   C123      1.0  0.31421  0.57302  0.35015  1.0000
  C   C124      1.0  0.29607  0.58994  0.35265  1.0000
  H   H102      1.0  0.30960  0.52636  0.34688  1.0000
  H   H103      1.0  0.30889  0.61527  0.36479  1.0000
  C   C125      1.0  0.21038  0.91430  0.35247  1.0000
  C   C126      1.0  0.19227  0.93124  0.35010  1.0000
  C   C127      1.0  0.20990  0.96587  0.33400  1.0000
  H   H104      1.0  0.19756  0.88896  0.36450  1.0000
  H   H105      1.0  0.19689  0.97791  0.34677  1.0000
  C   C128      1.0  0.11262  0.74762  0.42605  1.0000
  C   C129      1.0  0.10353  0.75085  0.51901  1.0000
  H   H106      1.0  0.10322  0.77419  0.52722  1.0000
  H   H107      1.0  0.12137  0.75076  0.56690  1.0000
  N   N31       1.0  0.14213  0.74859  0.41131  1.0000
  C   C130      1.0  0.25943  0.84842  0.35101  1.0000
  C   C131      1.0  0.25787  0.86623  0.42629  1.0000
  C   C132      1.0  0.25455  0.85386  0.51922  1.0000
  H   H108      1.0  0.23125  0.83018  0.52721  1.0000
  H   H109      1.0  0.25451  0.87173  0.56711  1.0000
  H   H110      1.0  0.27554  0.85013  0.53504  1.0000
  N   N32       1.0  0.25688  0.89476  0.41156  1.0000
  C   C133      1.0  0.15704  0.91199  0.35022  1.0000
  C   C134      1.0  0.13920  0.89279  0.42581  1.0000
  C   C135      1.0  0.15157  0.90197  0.51871  1.0000
  H   H111      1.0  0.17520  0.90223  0.52691  1.0000
  H   H112      1.0  0.13366  0.88420  0.56675  1.0000
  H   H113      1.0  0.15544  0.92677  0.53411  1.0000
  N   N33       1.0  0.11060  0.86328  0.41147  1.0000
  C   C136      1.0  0.41302  0.75808  0.35024  1.0000
  C   C137      1.0  0.39394  0.75680  0.42599  1.0000
  C   C138      1.0  0.40318  0.75372  0.51891  1.0000
  H   H114      1.0  0.40346  0.73037  0.52730  1.0000
  H   H115      1.0  0.38544  0.75392  0.56696  1.0000
  H   H116      1.0  0.42800  0.77468  0.53412  1.0000
  N   N34       1.0  0.36441  0.75584  0.41161  1.0000
  C   C139      1.0  0.24719  0.65596  0.35043  1.0000
  C   C140      1.0  0.24863  0.63815  0.42595  1.0000
  C   C141      1.0  0.25188  0.65043  0.51896  1.0000
  H   H117      1.0  0.27524  0.67405  0.52722  1.0000
  H   H118      1.0  0.25177  0.63247  0.56678  1.0000
  H   H119      1.0  0.23094  0.65426  0.53464  1.0000
  N   N35       1.0  0.24961  0.60961  0.41117  1.0000
  C   C142      1.0  0.34947  0.59224  0.35073  1.0000
  C   C143      1.0  0.36720  0.61155  0.42616  1.0000
  C   C144      1.0  0.35483  0.60253  0.51909  1.0000
  H   H120      1.0  0.33116  0.60218  0.52706  1.0000
  H   H121      1.0  0.37272  0.62043  0.56695  1.0000
  H   H122      1.0  0.35106  0.57779  0.53493  1.0000
  N   N36       1.0  0.39575  0.64105  0.41134  1.0000
  C   C145      1.0  0.98507  0.24263  0.31043  1.0000
  C   C146      1.0  0.93126  0.18884  0.32883  1.0000
  C   C147      1.0  0.96519  0.20678  0.29809  1.0000
  C   C148      1.0  0.52133  0.26156  0.31037  1.0000
  C   C149      1.0  0.54117  0.29742  0.29822  1.0000
  C   C150      1.0  0.57505  0.31538  0.32936  1.0000
  N   N37       1.0  0.97746  0.18951  0.25282  1.0000
  N   N38       1.0  0.52896  0.31469  0.25277  1.0000
  H   H123      1.0  0.49708  0.20130  0.21487  1.0000
  H   H124      1.0  0.96432  0.16549  0.24368  1.0000
  H   H125      1.0  0.54191  0.33875  0.24423  1.0000
  C   C151      1.0  0.76268  0.24349  0.31057  1.0000
  C   C152      1.0  0.81643  0.24342  0.32908  1.0000
  C   C153      1.0  0.79853  0.25945  0.29829  1.0000
  C   C154      1.0  0.74379  0.26086  0.31047  1.0000
  C   C155      1.0  0.70795  0.24491  0.29806  1.0000
  C   C156      1.0  0.69002  0.26089  0.32907  1.0000
  N   N39       1.0  0.81585  0.28901  0.25314  1.0000
  N   N40       1.0  0.69067  0.21544  0.25258  1.0000
  H   H126      1.0  0.80410  0.29687  0.21518  1.0000
  H   H127      1.0  0.83988  0.29989  0.24413  1.0000
  H   H128      1.0  0.66661  0.20437  0.24388  1.0000
  H   H129      1.0  0.70240  0.20744  0.21498  1.0000
  C   C157      1.0  0.76192  0.02026  0.31037  1.0000
  C   C158      1.0  0.76195  0.07408  0.32871  1.0000
  C   C159      1.0  0.74595  0.04014  0.29801  1.0000
  C   C160      1.0  0.74458  0.48400  0.31052  1.0000
  C   C161      1.0  0.76055  0.46412  0.29815  1.0000
  C   C162      1.0  0.74452  0.43017  0.32879  1.0000
  N   N41       1.0  0.71641  0.02788  0.25280  1.0000
  N   N42       1.0  0.79011  0.47638  0.25298  1.0000
  H   H130      1.0  0.70855  0.50822  0.21497  1.0000
  H   H131      1.0  0.70543  0.04093  0.24373  1.0000
  H   H132      1.0  0.80095  0.46322  0.24366  1.0000
  H   H133      1.0  0.79789  0.99598  0.21496  1.0000
  C   C163      1.0  0.64748  0.25134  0.16007  1.0000
  C   C164      1.0  0.63593  0.24634  0.25423  1.0000
  H   H134      1.0  0.62972  0.23002  0.12005  1.0000
  H   H135      1.0  0.67212  0.25391  0.15243  1.0000
  H   H136      1.0  0.64874  0.27399  0.13359  1.0000
  N   N43       1.0  0.60706  0.24683  0.26915  1.0000
  C   C165      1.0  0.65484  0.24705  0.33017  1.0000
  C   C166      1.0  0.75404  0.39711  0.16014  1.0000
  C   C167      1.0  0.75920  0.39074  0.25432  1.0000
  H   H137      1.0  0.77527  0.40053  0.11991  1.0000
  H   H138      1.0  0.75153  0.41921  0.15230  1.0000
  H   H139      1.0  0.73130  0.37569  0.13407  1.0000
  N   N44       1.0  0.75867  0.36139  0.26966  1.0000
  C   C168      1.0  0.75844  0.40888  0.33027  1.0000
  C   C169      1.0  0.60796  0.35772  0.16011  1.0000
  C   C170      1.0  0.61446  0.36936  0.25420  1.0000
  H   H140      1.0  0.60447  0.37547  0.11984  1.0000
  H   H141      1.0  0.58587  0.33310  0.15254  1.0000
  H   H142      1.0  0.62935  0.35639  0.13386  1.0000
  N   N45       1.0  0.64388  0.39815  0.26914  1.0000
  C   C171      1.0  0.59639  0.35057  0.33036  1.0000
  C   C172      1.0  0.85881  0.25295  0.16021  1.0000
  C   C173      1.0  0.87041  0.25796  0.25434  1.0000
  H   H143      1.0  0.87657  0.27426  0.12014  1.0000
  H   H144      1.0  0.83418  0.25040  0.15264  1.0000
  H   H145      1.0  0.85752  0.23028  0.13370  1.0000
  N   N46       1.0  0.89925  0.25741  0.26912  1.0000
  C   C174      1.0  0.85161  0.25724  0.33056  1.0000
  C   C175      1.0  0.75220  0.10699  0.15994  1.0000
  C   C176      1.0  0.74726  0.11354  0.25415  1.0000
  H   H146      1.0  0.73086  0.10345  0.12004  1.0000
  H   H147      1.0  0.75474  0.08490  0.15220  1.0000
  H   H148      1.0  0.77485  0.12838  0.13339  1.0000
  N   N47       1.0  0.74779  0.14291  0.26919  1.0000
  C   C177      1.0  0.74803  0.09535  0.33003  1.0000
  C   C178      1.0  0.89823  0.14622  0.16001  1.0000
  C   C179      1.0  0.89180  0.13470  0.25419  1.0000
  H   H149      1.0  0.90169  0.12843  0.11986  1.0000
  H   H150      1.0  0.92032  0.17084  0.15223  1.0000
  H   H151      1.0  0.87682  0.14752  0.13380  1.0000
  N   N48       1.0  0.86243  0.10587  0.26936  1.0000
  C   C180      1.0  0.90997  0.15364  0.33008  1.0000
  C   C181      1.0  0.96694  0.25916  0.33402  1.0000
  C   C182      1.0  0.93234  0.24216  0.35061  1.0000
  C   C183      1.0  0.91540  0.20710  0.35279  1.0000
  H   H152      1.0  0.97897  0.28421  0.34678  1.0000
  H   H153      1.0  0.89006  0.19458  0.36472  1.0000
  C   C184      1.0  0.59095  0.29714  0.35304  1.0000
  C   C185      1.0  0.57409  0.26208  0.35057  1.0000
  C   C186      1.0  0.53949  0.24504  0.33381  1.0000
  H   H154      1.0  0.61627  0.30967  0.36533  1.0000
  H   H155      1.0  0.52748  0.22000  0.34664  1.0000
  C   C187      1.0  0.74611  0.20881  0.33403  1.0000
  C   C188      1.0  0.76309  0.19121  0.35089  1.0000
  C   C189      1.0  0.79815  0.20932  0.35310  1.0000
  H   H156      1.0  0.72105  0.19580  0.34660  1.0000
  H   H157      1.0  0.81066  0.19651  0.36539  1.0000
  C   C190      1.0  0.70830  0.29504  0.35262  1.0000
  C   C191      1.0  0.74335  0.31317  0.35012  1.0000
  C   C192      1.0  0.76035  0.29553  0.33411  1.0000
  H   H158      1.0  0.69580  0.30787  0.36488  1.0000
  H   H159      1.0  0.78538  0.30851  0.34705  1.0000
  C   C193      1.0  0.79661  0.03840  0.33382  1.0000
  C   C194      1.0  0.81421  0.07303  0.35015  1.0000
  C   C195      1.0  0.79607  0.08994  0.35265  1.0000
  H   H160      1.0  0.80959  0.02636  0.34688  1.0000
  H   H161      1.0  0.80889  0.11527  0.36479  1.0000
  C   C196      1.0  0.71038  0.41430  0.35247  1.0000
  C   C197      1.0  0.69227  0.43124  0.35010  1.0000
  C   C198      1.0  0.70990  0.46587  0.33400  1.0000
  H   H162      1.0  0.69756  0.38896  0.36450  1.0000
  H   H163      1.0  0.69689  0.47791  0.34677  1.0000
  C   C199      1.0  0.59341  0.24616  0.35044  1.0000
  C   C200      1.0  0.61262  0.24762  0.42605  1.0000
  C   C201      1.0  0.60353  0.25085  0.51901  1.0000
  H   H164      1.0  0.60322  0.27419  0.52722  1.0000
  H   H165      1.0  0.62137  0.25076  0.56690  1.0000
  H   H166      1.0  0.57876  0.22989  0.53462  1.0000
  N   N49       1.0  0.64213  0.24859  0.41131  1.0000
  C   C202      1.0  0.75943  0.34842  0.35101  1.0000
  C   C203      1.0  0.75787  0.36623  0.42629  1.0000
  C   C204      1.0  0.75455  0.35386  0.51922  1.0000
  H   H167      1.0  0.73124  0.33018  0.52721  1.0000
  H   H168      1.0  0.75451  0.37173  0.56711  1.0000
  H   H169      1.0  0.77554  0.35013  0.53504  1.0000
  N   N50       1.0  0.75688  0.39476  0.41156  1.0000
  C   C205      1.0  0.65704  0.41199  0.35022  1.0000
  C   C206      1.0  0.63920  0.39279  0.42581  1.0000
  C   C207      1.0  0.65157  0.40197  0.51871  1.0000
  H   H170      1.0  0.67520  0.40223  0.52691  1.0000
  H   H171      1.0  0.63366  0.38420  0.56675  1.0000
  H   H172      1.0  0.65543  0.42677  0.53411  1.0000
  N   N51       1.0  0.61061  0.36328  0.41147  1.0000
  C   C208      1.0  0.91302  0.25809  0.35024  1.0000
  C   C209      1.0  0.89394  0.25680  0.42599  1.0000
  C   C210      1.0  0.90318  0.25372  0.51891  1.0000
  H   H173      1.0  0.90346  0.23037  0.52730  1.0000
  H   H174      1.0  0.88544  0.25392  0.56696  1.0000
  H   H175      1.0  0.92800  0.27469  0.53412  1.0000
  N   N52       1.0  0.86441  0.25584  0.41161  1.0000
  C   C211      1.0  0.74719  0.15596  0.35043  1.0000
  C   C212      1.0  0.74863  0.13815  0.42595  1.0000
  C   C213      1.0  0.75188  0.15043  0.51896  1.0000
  H   H176      1.0  0.77524  0.17405  0.52722  1.0000
  H   H177      1.0  0.75177  0.13247  0.56678  1.0000
  H   H178      1.0  0.73094  0.15426  0.53464  1.0000
  N   N53       1.0  0.74961  0.10961  0.41117  1.0000
  C   C214      1.0  0.84947  0.09224  0.35073  1.0000
  C   C215      1.0  0.86720  0.11155  0.42616  1.0000
  C   C216      1.0  0.85483  0.10253  0.51909  1.0000
  H   H179      1.0  0.83116  0.10218  0.52706  1.0000
  H   H180      1.0  0.87272  0.12043  0.56695  1.0000
  H   H181      1.0  0.85106  0.07779  0.53493  1.0000
  N   N54       1.0  0.89575  0.14105  0.41134  1.0000
  C   C217      1.0  0.98507  0.74263  0.31043  1.0000
  C   C218      1.0  0.93126  0.68884  0.32883  1.0000
  C   C219      1.0  0.96519  0.70678  0.29809  1.0000
  C   C220      1.0  0.52133  0.76156  0.31037  1.0000
  C   C221      1.0  0.54117  0.79741  0.29822  1.0000
  C   C222      1.0  0.57505  0.81538  0.32936  1.0000
  N   N55       1.0  0.97746  0.68951  0.25282  1.0000
  N   N56       1.0  0.52896  0.81468  0.25277  1.0000
  H   H182      1.0  0.49708  0.70130  0.21487  1.0000
  H   H183      1.0  0.96432  0.66549  0.24368  1.0000
  H   H184      1.0  0.54191  0.83875  0.24423  1.0000
  C   C223      1.0  0.76268  0.74349  0.31057  1.0000
  C   C224      1.0  0.81643  0.74342  0.32908  1.0000
  C   C225      1.0  0.79853  0.75945  0.29829  1.0000
  C   C226      1.0  0.74379  0.76086  0.31047  1.0000
  C   C227      1.0  0.70795  0.74491  0.29806  1.0000
  C   C228      1.0  0.69002  0.76089  0.32907  1.0000
  N   N57       1.0  0.81585  0.78901  0.25314  1.0000
  N   N58       1.0  0.69067  0.71544  0.25258  1.0000
  H   H185      1.0  0.80410  0.79687  0.21518  1.0000
  H   H186      1.0  0.83988  0.79989  0.24413  1.0000
  H   H187      1.0  0.66661  0.70437  0.24388  1.0000
  H   H188      1.0  0.70240  0.70744  0.21498  1.0000
  C   C229      1.0  0.76192  0.52026  0.31037  1.0000
  C   C230      1.0  0.76195  0.57407  0.32871  1.0000
  C   C231      1.0  0.74595  0.54014  0.29801  1.0000
  C   C232      1.0  0.74458  0.98400  0.31052  1.0000
  C   C233      1.0  0.76055  0.96412  0.29815  1.0000
  C   C234      1.0  0.74452  0.93017  0.32879  1.0000
  N   N59       1.0  0.71641  0.52788  0.25280  1.0000
  N   N60       1.0  0.79011  0.97638  0.25298  1.0000
  H   H189      1.0  0.70855  0.00822  0.21497  1.0000
  H   H190      1.0  0.70543  0.54093  0.24373  1.0000
  H   H191      1.0  0.80095  0.96322  0.24366  1.0000
  H   H192      1.0  0.79789  0.49598  0.21496  1.0000
  C   C235      1.0  0.64748  0.75134  0.16007  1.0000
  C   C236      1.0  0.63593  0.74634  0.25423  1.0000
  H   H193      1.0  0.62972  0.73002  0.12005  1.0000
  H   H194      1.0  0.67212  0.75390  0.15243  1.0000
  H   H195      1.0  0.64874  0.77400  0.13359  1.0000
  N   N61       1.0  0.60706  0.74683  0.26915  1.0000
  C   C237      1.0  0.65484  0.74705  0.33017  1.0000
  C   C238      1.0  0.75404  0.89711  0.16014  1.0000
  C   C239      1.0  0.75920  0.89074  0.25432  1.0000
  H   H196      1.0  0.77527  0.90053  0.11991  1.0000
  H   H197      1.0  0.75153  0.91921  0.15230  1.0000
  H   H198      1.0  0.73131  0.87569  0.13407  1.0000
  N   N62       1.0  0.75867  0.86139  0.26966  1.0000
  C   C240      1.0  0.75843  0.90889  0.33027  1.0000
  C   C241      1.0  0.60796  0.85772  0.16011  1.0000
  C   C242      1.0  0.61446  0.86936  0.25420  1.0000
  H   H199      1.0  0.60447  0.87547  0.11984  1.0000
  H   H200      1.0  0.58587  0.83310  0.15254  1.0000
  H   H201      1.0  0.62935  0.85639  0.13386  1.0000
  N   N63       1.0  0.64388  0.89815  0.26914  1.0000
  C   C243      1.0  0.59639  0.85058  0.33036  1.0000
  C   C244      1.0  0.85881  0.75295  0.16021  1.0000
  C   C245      1.0  0.87041  0.75796  0.25434  1.0000
  H   H202      1.0  0.87657  0.77426  0.12014  1.0000
  H   H203      1.0  0.83418  0.75040  0.15264  1.0000
  H   H204      1.0  0.85752  0.73028  0.13370  1.0000
  N   N64       1.0  0.89925  0.75741  0.26912  1.0000
  C   C246      1.0  0.85161  0.75724  0.33056  1.0000
  C   C247      1.0  0.75220  0.60699  0.15994  1.0000
  C   C248      1.0  0.74726  0.61354  0.25415  1.0000
  H   H205      1.0  0.73086  0.60345  0.12004  1.0000
  H   H206      1.0  0.75474  0.58490  0.15220  1.0000
  H   H207      1.0  0.77485  0.62838  0.13339  1.0000
  N   N65       1.0  0.74779  0.64291  0.26919  1.0000
  C   C249      1.0  0.74803  0.59535  0.33003  1.0000
  C   C250      1.0  0.89823  0.64622  0.16001  1.0000
  C   C251      1.0  0.89180  0.63469  0.25419  1.0000
  H   H208      1.0  0.90169  0.62843  0.11986  1.0000
  H   H209      1.0  0.92032  0.67084  0.15223  1.0000
  H   H210      1.0  0.87682  0.64752  0.13380  1.0000
  N   N66       1.0  0.86243  0.60587  0.26936  1.0000
  C   C252      1.0  0.90997  0.65364  0.33008  1.0000
  C   C253      1.0  0.96694  0.75916  0.33402  1.0000
  C   C254      1.0  0.93234  0.74216  0.35061  1.0000
  C   C255      1.0  0.91540  0.70710  0.35279  1.0000
  H   H211      1.0  0.97897  0.78421  0.34678  1.0000
  H   H212      1.0  0.89005  0.69458  0.36472  1.0000
  C   C256      1.0  0.59095  0.79714  0.35304  1.0000
  C   C257      1.0  0.57409  0.76208  0.35057  1.0000
  C   C258      1.0  0.53949  0.74504  0.33381  1.0000
  H   H213      1.0  0.61627  0.80967  0.36533  1.0000
  H   H214      1.0  0.52748  0.72000  0.34664  1.0000
  C   C259      1.0  0.74611  0.70881  0.33403  1.0000
  C   C260      1.0  0.76309  0.69121  0.35089  1.0000
  C   C261      1.0  0.79815  0.70932  0.35310  1.0000
  H   H215      1.0  0.72105  0.69580  0.34660  1.0000
  H   H216      1.0  0.81066  0.69651  0.36539  1.0000
  C   C262      1.0  0.70830  0.79504  0.35262  1.0000
  C   C263      1.0  0.74335  0.81317  0.35012  1.0000
  C   C264      1.0  0.76035  0.79553  0.33411  1.0000
  H   H217      1.0  0.69580  0.80787  0.36488  1.0000
  H   H218      1.0  0.78538  0.80851  0.34705  1.0000
  C   C265      1.0  0.79661  0.53840  0.33382  1.0000
  C   C266      1.0  0.81421  0.57302  0.35015  1.0000
  C   C267      1.0  0.79607  0.58994  0.35265  1.0000
  H   H219      1.0  0.80960  0.52636  0.34688  1.0000
  H   H220      1.0  0.80889  0.61527  0.36479  1.0000
  C   C268      1.0  0.71038  0.91430  0.35247  1.0000
  C   C269      1.0  0.69227  0.93124  0.35010  1.0000
  C   C270      1.0  0.70990  0.96587  0.33400  1.0000
  H   H221      1.0  0.69756  0.88896  0.36450  1.0000
  H   H222      1.0  0.69689  0.97791  0.34677  1.0000
  C   C271      1.0  0.59342  0.74616  0.35044  1.0000
  C   C272      1.0  0.61261  0.74762  0.42605  1.0000
  C   C273      1.0  0.60353  0.75085  0.51901  1.0000
  H   H223      1.0  0.60322  0.77419  0.52722  1.0000
  H   H224      1.0  0.62137  0.75076  0.56690  1.0000
  H   H225      1.0  0.57876  0.72989  0.53462  1.0000
  N   N67       1.0  0.64213  0.74859  0.41131  1.0000
  C   C274      1.0  0.75943  0.84842  0.35101  1.0000
  C   C275      1.0  0.75787  0.86623  0.42629  1.0000
  C   C276      1.0  0.75455  0.85386  0.51922  1.0000
  H   H226      1.0  0.73125  0.83018  0.52721  1.0000
  H   H227      1.0  0.75451  0.87173  0.56711  1.0000
  H   H228      1.0  0.77554  0.85013  0.53504  1.0000
  N   N68       1.0  0.75688  0.89476  0.41156  1.0000
  C   C277      1.0  0.65704  0.91199  0.35022  1.0000
  C   C278      1.0  0.63920  0.89279  0.42581  1.0000
  C   C279      1.0  0.65157  0.90197  0.51871  1.0000
  H   H229      1.0  0.67520  0.90223  0.52691  1.0000
  H   H230      1.0  0.63366  0.88420  0.56675  1.0000
  H   H231      1.0  0.65544  0.92677  0.53411  1.0000
  N   N69       1.0  0.61061  0.86328  0.41147  1.0000
  C   C280      1.0  0.91302  0.75808  0.35024  1.0000
  C   C281      1.0  0.89394  0.75680  0.42599  1.0000
  C   C282      1.0  0.90318  0.75372  0.51891  1.0000
  H   H232      1.0  0.90346  0.73037  0.52730  1.0000
  H   H233      1.0  0.88544  0.75392  0.56696  1.0000
  H   H234      1.0  0.92800  0.77468  0.53412  1.0000
  N   N70       1.0  0.86441  0.75584  0.41161  1.0000
  C   C283      1.0  0.74719  0.65596  0.35043  1.0000
  C   C284      1.0  0.74863  0.63815  0.42595  1.0000
  C   C285      1.0  0.75188  0.65043  0.51896  1.0000
  H   H235      1.0  0.77524  0.67405  0.52722  1.0000
  H   H236      1.0  0.75177  0.63247  0.56678  1.0000
  H   H237      1.0  0.73094  0.65426  0.53464  1.0000
  N   N71       1.0  0.74960  0.60961  0.41117  1.0000
  C   C286      1.0  0.84947  0.59224  0.35073  1.0000
  C   C287      1.0  0.86721  0.61155  0.42616  1.0000
  C   C288      1.0  0.85483  0.60253  0.51909  1.0000
  H   H238      1.0  0.83116  0.60218  0.52706  1.0000
  H   H239      1.0  0.87272  0.62043  0.56695  1.0000
  H   H240      1.0  0.85106  0.57779  0.53493  1.0000
  N   N72       1.0  0.89575  0.64105  0.41134  1.0000
