data_image0
_chemical_formula_structural       HCHC30H17NHNHNHC30H17NHNHNHNC2HCH2NC2HCH2NC2H10CNCNH2CH2CNCNH2CH2CNCNHCH2
_chemical_formula_sum              "H69 C78 N15"
_cell_length_a       44.764
_cell_length_b       44.764
_cell_length_c       14.9893
_cell_angle_alpha    90
_cell_angle_beta     90
_cell_angle_gamma    120

_space_group_name_H-M_alt    "P 1"
_space_group_IT_number       1

loop_
  _space_group_symop_operation_xyz
  'x, y, z'

loop_
  _atom_site_type_symbol
  _atom_site_label
  _atom_site_symmetry_multiplicity
  _atom_site_fract_x
  _atom_site_fract_y
  _atom_site_fract_z
  _atom_site_occupancy
  H   H1        1.0  0.00408  0.49500  0.55803  1.0000
  C   C1        1.0  0.00963  0.50963  0.24930  1.0000
  H   H2        1.0  0.01563  0.51546  0.18346  1.0000
  C   C2        1.0  0.13134  0.56727  0.35044  1.0000
  C   C3        1.0  0.15066  0.60120  0.31670  1.0000
  C   C4        1.0  0.18631  0.61606  0.30122  1.0000
  C   C5        1.0  0.20326  0.59721  0.31919  1.0000
  C   C6        1.0  0.18379  0.56312  0.35181  1.0000
  C   C7        1.0  0.14821  0.54844  0.36797  1.0000
  C   C8        1.0  0.23843  0.61163  0.30633  1.0000
  C   C9        1.0  0.26186  0.63820  0.35542  1.0000
  C   C10       1.0  0.29734  0.65214  0.34793  1.0000
  C   C11       1.0  0.31254  0.63100  0.34866  1.0000
  C   C12       1.0  0.34876  0.64539  0.34807  1.0000
  C   C13       1.0  0.36990  0.68173  0.34874  1.0000
  C   C14       1.0  0.35551  0.70355  0.34807  1.0000
  C   C15       1.0  0.31917  0.68835  0.34862  1.0000
  C   C16       1.0  0.37705  0.73904  0.35557  1.0000
  C   C17       1.0  0.37392  0.76246  0.30645  1.0000
  C   C18       1.0  0.39468  0.79764  0.31926  1.0000
  C   C19       1.0  0.38006  0.81711  0.35191  1.0000
  C   C20       1.0  0.43047  0.81457  0.30129  1.0000
  C   C21       1.0  0.45126  0.85023  0.31670  1.0000
  C   C22       1.0  0.43666  0.86956  0.35045  1.0000
  C   C23       1.0  0.40096  0.85269  0.36799  1.0000
  C   C24       1.0  0.36270  0.62384  0.35557  1.0000
  C   C25       1.0  0.38927  0.62699  0.30648  1.0000
  C   C26       1.0  0.40368  0.60623  0.31930  1.0000
  C   C27       1.0  0.38483  0.57044  0.30132  1.0000
  C   C28       1.0  0.43777  0.62084  0.35195  1.0000
  C   C29       1.0  0.45245  0.59994  0.36804  1.0000
  C   C30       1.0  0.43362  0.56424  0.35052  1.0000
  C   C31       1.0  0.39969  0.54964  0.31676  1.0000
  H   H3        1.0  0.13891  0.61537  0.30463  1.0000
  H   H4        1.0  0.19982  0.64080  0.27755  1.0000
  H   H5        1.0  0.30843  0.70389  0.35195  1.0000
  H   H6        1.0  0.29701  0.60472  0.35195  1.0000
  H   H7        1.0  0.39617  0.69247  0.35207  1.0000
  H   H8        1.0  0.36009  0.55920  0.27764  1.0000
  H   H9        1.0  0.35424  0.80548  0.36588  1.0000
  H   H10       1.0  0.47718  0.86197  0.30468  1.0000
  H   H11       1.0  0.44170  0.80107  0.27762  1.0000
  H   H12       1.0  0.38551  0.52372  0.30471  1.0000
  H   H13       1.0  0.45195  0.64666  0.36592  1.0000
  H   H14       1.0  0.35498  0.75468  0.26193  1.0000
  H   H15       1.0  0.39592  0.74735  0.40061  1.0000
  H   H16       1.0  0.24620  0.60044  0.26192  1.0000
  H   H17       1.0  0.25355  0.64878  0.40041  1.0000
  H   H18       1.0  0.40044  0.64594  0.26200  1.0000
  H   H19       1.0  0.35213  0.60497  0.40058  1.0000
  N   N1        1.0  0.45667  0.90511  0.37040  1.0000
  H   H20       1.0  0.47621  0.90887  0.41312  1.0000
  N   N2        1.0  0.09579  0.55172  0.37040  1.0000
  H   H21       1.0  0.09203  0.56750  0.41312  1.0000
  N   N3        1.0  0.44916  0.54423  0.37044  1.0000
  H   H22       1.0  0.43337  0.52469  0.41316  1.0000
  C   C32       1.0  0.86989  0.43414  0.31707  1.0000
  C   C33       1.0  0.85056  0.40019  0.35072  1.0000
  C   C34       1.0  0.81482  0.38514  0.36499  1.0000
  C   C35       1.0  0.79779  0.40382  0.34593  1.0000
  C   C36       1.0  0.81724  0.43789  0.31316  1.0000
  C   C37       1.0  0.85290  0.45275  0.29818  1.0000
  C   C38       1.0  0.76260  0.38934  0.35844  1.0000
  C   C39       1.0  0.73924  0.36267  0.30947  1.0000
  C   C40       1.0  0.70374  0.34866  0.31686  1.0000
  C   C41       1.0  0.68846  0.36972  0.31615  1.0000
  C   C42       1.0  0.65224  0.35527  0.31681  1.0000
  C   C43       1.0  0.63117  0.31892  0.31617  1.0000
  C   C44       1.0  0.64563  0.29715  0.31683  1.0000
  C   C45       1.0  0.68198  0.31244  0.31619  1.0000
  C   C46       1.0  0.62414  0.26165  0.30943  1.0000
  C   C47       1.0  0.62745  0.23830  0.35843  1.0000
  C   C48       1.0  0.60674  0.20310  0.34592  1.0000
  C   C49       1.0  0.62137  0.18366  0.31315  1.0000
  C   C50       1.0  0.57102  0.18607  0.36497  1.0000
  C   C51       1.0  0.55034  0.15033  0.35070  1.0000
  C   C52       1.0  0.56497  0.13101  0.31705  1.0000
  C   C53       1.0  0.60057  0.14800  0.29816  1.0000
  C   C54       1.0  0.63822  0.37675  0.30941  1.0000
  C   C55       1.0  0.61156  0.37345  0.35840  1.0000
  C   C56       1.0  0.59708  0.39416  0.34587  1.0000
  C   C57       1.0  0.61575  0.42987  0.36495  1.0000
  C   C58       1.0  0.56302  0.37954  0.31304  1.0000
  C   C59       1.0  0.54814  0.40033  0.29810  1.0000
  C   C60       1.0  0.56675  0.43593  0.31699  1.0000
  C   C61       1.0  0.60070  0.45055  0.35066  1.0000
  H   H23       1.0  0.86241  0.38619  0.36389  1.0000
  H   H24       1.0  0.80135  0.36043  0.38893  1.0000
  H   H25       1.0  0.69278  0.29695  0.31289  1.0000
  H   H26       1.0  0.70394  0.39601  0.31287  1.0000
  H   H27       1.0  0.60489  0.30812  0.31284  1.0000
  H   H28       1.0  0.64045  0.44110  0.38893  1.0000
  H   H29       1.0  0.64714  0.19536  0.29849  1.0000
  H   H30       1.0  0.52449  0.13848  0.36387  1.0000
  H   H31       1.0  0.55980  0.19954  0.38891  1.0000
  H   H32       1.0  0.61470  0.47640  0.36387  1.0000
  H   H33       1.0  0.54894  0.35376  0.29843  1.0000
  H   H34       1.0  0.64645  0.24615  0.40275  1.0000
  H   H35       1.0  0.60519  0.25327  0.26465  1.0000
  H   H36       1.0  0.75475  0.40050  0.40274  1.0000
  H   H37       1.0  0.74763  0.35209  0.26470  1.0000
  H   H38       1.0  0.60040  0.35444  0.40272  1.0000
  H   H39       1.0  0.64880  0.39571  0.26464  1.0000
  N   N4        1.0  0.54512  0.09524  0.29936  1.0000
  H   H40       1.0  0.52511  0.09087  0.25764  1.0000
  N   N5        1.0  0.90565  0.45005  0.29938  1.0000
  H   H41       1.0  0.91003  0.43442  0.25766  1.0000
  N   N6        1.0  0.55084  0.45578  0.29933  1.0000
  H   H42       1.0  0.56647  0.47579  0.25762  1.0000
  N   N7        1.0  0.51079  0.48626  0.27408  1.0000
  C   C62       1.0  0.49125  0.50017  0.24930  1.0000
  C   C63       1.0  0.47953  0.51427  0.31531  1.0000
  H   H43       1.0  0.48541  0.50034  0.18346  1.0000
  C   C64       1.0  0.45830  0.53007  0.29201  1.0000
  H   H44       1.0  0.47308  0.55098  0.24472  1.0000
  H   H45       1.0  0.43479  0.51065  0.25872  1.0000
  N   N8        1.0  0.51464  0.02472  0.27408  1.0000
  C   C65       1.0  0.50073  0.99126  0.24929  1.0000
  C   C66       1.0  0.48662  0.96545  0.31529  1.0000
  H   H46       1.0  0.50056  0.98527  0.18344  1.0000
  C   C67       1.0  0.47082  0.92841  0.29198  1.0000
  H   H47       1.0  0.44992  0.92229  0.24468  1.0000
  H   H48       1.0  0.49025  0.92433  0.25869  1.0000
  N   N9        1.0  0.97618  0.49009  0.27410  1.0000
  C   C68       1.0  0.03545  0.52135  0.31530  1.0000
  C   C69       1.0  0.07249  0.54258  0.29198  1.0000
  H   H49       1.0  0.07860  0.52779  0.24469  1.0000
  H   H50       1.0  0.07656  0.56609  0.25870  1.0000
  H   H51       1.0  0.13464  0.52392  0.39291  1.0000
  H   H52       1.0  0.19543  0.54895  0.36584  1.0000
  H   H53       1.0  0.39001  0.86627  0.39293  1.0000
  H   H54       1.0  0.47697  0.61089  0.39297  1.0000
  H   H55       1.0  0.86649  0.47731  0.27346  1.0000
  H   H56       1.0  0.80554  0.45195  0.29849  1.0000
  H   H57       1.0  0.61154  0.13442  0.27346  1.0000
  H   H58       1.0  0.52359  0.38936  0.27340  1.0000
  C   C70       1.0  0.52003  0.48491  0.35992  1.0000
  N   N10       1.0  0.48868  0.51287  0.40103  1.0000
  C   C71       1.0  0.50820  0.49891  0.42715  1.0000
  N   N11       1.0  0.51489  0.49931  0.51541  1.0000
  H   H59       1.0  0.52854  0.48972  0.53870  1.0000
  H   H60       1.0  0.50588  0.50924  0.55802  1.0000
  C   C72       1.0  0.54157  0.46901  0.37952  1.0000
  H   H61       1.0  0.52700  0.44751  0.42540  1.0000
  H   H62       1.0  0.56514  0.48817  0.41308  1.0000
  C   C73       1.0  0.51599  0.03530  0.35992  1.0000
  N   N12       1.0  0.48802  0.97599  0.40102  1.0000
  C   C74       1.0  0.50198  0.00947  0.42714  1.0000
  N   N13       1.0  0.50157  0.01575  0.51541  1.0000
  H   H63       1.0  0.51117  0.03900  0.53871  1.0000
  H   H64       1.0  0.49165  0.99681  0.55801  1.0000
  C   C75       1.0  0.53189  0.07275  0.37953  1.0000
  H   H65       1.0  0.55338  0.07967  0.42543  1.0000
  H   H66       1.0  0.51273  0.07716  0.41310  1.0000
  C   C76       1.0  0.96559  0.48085  0.35994  1.0000
  N   N14       1.0  0.02491  0.51220  0.40103  1.0000
  C   C77       1.0  0.99143  0.49269  0.42715  1.0000
  N   N15       1.0  0.98515  0.48600  0.51542  1.0000
  H   H67       1.0  0.96190  0.47235  0.53873  1.0000
  C   C78       1.0  0.92815  0.45931  0.37955  1.0000
  H   H68       1.0  0.92123  0.47389  0.42545  1.0000
  H   H69       1.0  0.92373  0.43574  0.41312  1.0000
