data_image0
_chemical_formula_structural       N2H2N4H2N2H2N2H2N2C8H4C8H4C8H4C8H4C8H4C8H4C8H4C8H4C8H4C8H4C8H4C8H4NC18H12NC18H12NC18H12NC18H12NC18H12NC18H12NC18H12NC18H12NC18H12NC18H12NC18H12NC18H12C8H2C8H4C8H2C8H2C8H2C8H4N24
_chemical_formula_sum              "N48 H216 C360"
_cell_length_a       63.8623
_cell_length_b       63.8623
_cell_length_c       14.7029
_cell_angle_alpha    90
_cell_angle_beta     90
_cell_angle_gamma    120

_space_group_name_H-M_alt    "P 1"
_space_group_IT_number       1

loop_
  _space_group_symop_operation_xyz
  'x, y, z'

loop_
  _atom_site_type_symbol
  _atom_site_label
  _atom_site_symmetry_multiplicity
  _atom_site_fract_x
  _atom_site_fract_y
  _atom_site_fract_z
  _atom_site_occupancy
  N   N1        1.0  0.21661  0.40340  0.31616  1.0000
  N   N2        1.0  0.20464  0.37966  0.31542  1.0000
  H   H1        1.0  0.18753  0.41286  0.00924  1.0000
  H   H2        1.0  0.16540  0.36912  0.00779  1.0000
  N   N3        1.0  0.60652  0.80466  0.29825  1.0000
  N   N4        1.0  0.63026  0.81658  0.29830  1.0000
  N   N5        1.0  0.21216  0.79948  0.30410  1.0000
  N   N6        1.0  0.20058  0.81164  0.30434  1.0000
  H   H3        1.0  0.21467  0.79207  0.02570  1.0000
  H   H4        1.0  0.20120  0.82143  0.02574  1.0000
  N   N7        1.0  0.80960  0.59967  0.31256  1.0000
  N   N8        1.0  0.82173  0.62341  0.31142  1.0000
  H   H5        1.0  0.80128  0.59140  0.03445  1.0000
  H   H6        1.0  0.83090  0.63416  0.03256  1.0000
  N   N9        1.0  0.41417  0.19851  0.30572  1.0000
  N   N10       1.0  0.39042  0.18668  0.30606  1.0000
  H   H7        1.0  0.42469  0.23568  0.00163  1.0000
  H   H8        1.0  0.38095  0.21423  0.00178  1.0000
  N   N11       1.0  0.80499  0.19986  0.29988  1.0000
  N   N12       1.0  0.81709  0.18821  0.30040  1.0000
  C   C1        1.0  0.22303  0.18600  0.33906  1.0000
  C   C2        1.0  0.22850  0.20398  0.27110  1.0000
  C   C3        1.0  0.21607  0.21757  0.27157  1.0000
  C   C4        1.0  0.19780  0.21240  0.33829  1.0000
  C   C5        1.0  0.22341  0.23674  0.20795  1.0000
  C   C6        1.0  0.24112  0.24152  0.14202  1.0000
  C   C7        1.0  0.25276  0.22790  0.14031  1.0000
  C   C8        1.0  0.24688  0.20972  0.20531  1.0000
  H   H9        1.0  0.21661  0.24817  0.20993  1.0000
  H   H10       1.0  0.24609  0.25545  0.09701  1.0000
  H   H11       1.0  0.26618  0.23184  0.09393  1.0000
  H   H12       1.0  0.25683  0.20124  0.20465  1.0000
  C   C9        1.0  0.82398  0.02868  0.32739  1.0000
  C   C10       1.0  0.80300  0.01607  0.27138  1.0000
  C   C11       1.0  0.78989  0.99003  0.27059  1.0000
  C   C12       1.0  0.79795  0.97706  0.32599  1.0000
  C   C13       1.0  0.76838  0.97796  0.21807  1.0000
  C   C14       1.0  0.76033  0.99075  0.16481  1.0000
  C   C15       1.0  0.77302  0.01604  0.16578  1.0000
  C   C16       1.0  0.79378  0.02849  0.21978  1.0000
  H   H13       1.0  0.75768  0.95960  0.21945  1.0000
  H   H14       1.0  0.74469  0.98165  0.12804  1.0000
  H   H15       1.0  0.76665  0.02539  0.12962  1.0000
  H   H16       1.0  0.80149  0.04684  0.22257  1.0000
  C   C17       1.0  0.98361  0.79028  0.33425  1.0000
  C   C18       1.0  0.99576  0.78434  0.26628  1.0000
  C   C19       1.0  0.02177  0.79655  0.26555  1.0000
  C   C20       1.0  0.03519  0.81501  0.33117  1.0000
  C   C21       1.0  0.03324  0.78878  0.20199  1.0000
  C   C22       1.0  0.01996  0.77081  0.13733  1.0000
  C   C23       1.0  0.99471  0.75938  0.13676  1.0000
  C   C24       1.0  0.98276  0.76572  0.20170  1.0000
  H   H17       1.0  0.05145  0.79542  0.20327  1.0000
  H   H18       1.0  0.02866  0.76548  0.09249  1.0000
  H   H19       1.0  0.98498  0.74574  0.09148  1.0000
  H   H20       1.0  0.96432  0.75590  0.20208  1.0000
  C   C25       1.0  0.79836  0.81770  0.32857  1.0000
  C   C26       1.0  0.79291  0.79976  0.26047  1.0000
  C   C27       1.0  0.80537  0.78618  0.26079  1.0000
  C   C28       1.0  0.82368  0.79140  0.32734  1.0000
  C   C29       1.0  0.79798  0.76700  0.19725  1.0000
  C   C30       1.0  0.78021  0.76218  0.13153  1.0000
  C   C31       1.0  0.76861  0.77584  0.12980  1.0000
  C   C32       1.0  0.77454  0.79405  0.19468  1.0000
  H   H21       1.0  0.80477  0.75556  0.19919  1.0000
  H   H22       1.0  0.77522  0.74825  0.08654  1.0000
  H   H23       1.0  0.75518  0.77190  0.08347  1.0000
  H   H24       1.0  0.76463  0.80258  0.19403  1.0000
  C   C33       1.0  0.19600  0.97410  0.33582  1.0000
  C   C34       1.0  0.21399  0.98642  0.26770  1.0000
  C   C35       1.0  0.22766  0.01244  0.26746  1.0000
  C   C36       1.0  0.22260  0.02567  0.33388  1.0000
  C   C37       1.0  0.24675  0.02411  0.20347  1.0000
  C   C38       1.0  0.25148  0.01101  0.13812  1.0000
  C   C39       1.0  0.23783  0.98575  0.13725  1.0000
  C   C40       1.0  0.21966  0.97361  0.20242  1.0000
  H   H25       1.0  0.25816  0.04235  0.20477  1.0000
  H   H26       1.0  0.26537  0.01985  0.09287  1.0000
  H   H27       1.0  0.24172  0.97615  0.09125  1.0000
  H   H28       1.0  0.21112  0.95517  0.20231  1.0000
  C   C41       1.0  0.03691  0.21276  0.34100  1.0000
  C   C42       1.0  0.02441  0.21451  0.26333  1.0000
  C   C43       1.0  0.99837  0.20172  0.26225  1.0000
  C   C44       1.0  0.98524  0.18743  0.33894  1.0000
  C   C45       1.0  0.98644  0.20472  0.18605  1.0000
  C   C46       1.0  0.99937  0.21898  0.11133  1.0000
  C   C47       1.0  0.02466  0.23146  0.11246  1.0000
  C   C48       1.0  0.03697  0.22960  0.18822  1.0000
  H   H29       1.0  0.96809  0.19716  0.18431  1.0000
  H   H30       1.0  0.99037  0.22099  0.05747  1.0000
  H   H31       1.0  0.03411  0.24254  0.05939  1.0000
  H   H32       1.0  0.05535  0.24015  0.18813  1.0000
  C   C49       1.0  0.25132  0.59857  0.35474  1.0000
  C   C50       1.0  0.25804  0.61236  0.27255  1.0000
  C   C51       1.0  0.25827  0.63498  0.27033  1.0000
  C   C52       1.0  0.25167  0.64307  0.35026  1.0000
  C   C53       1.0  0.26652  0.64922  0.18996  1.0000
  C   C54       1.0  0.27309  0.64113  0.11220  1.0000
  C   C55       1.0  0.27277  0.61908  0.11426  1.0000
  C   C56       1.0  0.26593  0.60522  0.19413  1.0000
  H   H33       1.0  0.26868  0.66613  0.18687  1.0000
  H   H34       1.0  0.27906  0.65176  0.05529  1.0000
  H   H35       1.0  0.27849  0.61361  0.05883  1.0000
  H   H36       1.0  0.26756  0.59014  0.19398  1.0000
  C   C57       1.0  0.41190  0.64265  0.32181  1.0000
  C   C58       1.0  0.40324  0.63041  0.23680  1.0000
  C   C59       1.0  0.38266  0.60639  0.23585  1.0000
  C   C60       1.0  0.36905  0.59658  0.31721  1.0000
  C   C61       1.0  0.37661  0.59295  0.15364  1.0000
  C   C62       1.0  0.38833  0.60362  0.07170  1.0000
  C   C63       1.0  0.40611  0.62810  0.07020  1.0000
  C   C64       1.0  0.41342  0.64128  0.15173  1.0000
  H   H37       1.0  0.36363  0.57509  0.15204  1.0000
  H   H38       1.0  0.38333  0.59381  0.01271  1.0000
  H   H39       1.0  0.41401  0.63623  0.00994  1.0000
  H   H40       1.0  0.42593  0.65921  0.14685  1.0000
  C   C65       1.0  0.36890  0.76313  0.29421  1.0000
  C   C66       1.0  0.38542  0.77500  0.22147  1.0000
  C   C67       1.0  0.40809  0.77537  0.22046  1.0000
  C   C68       1.0  0.41357  0.76390  0.29230  1.0000
  C   C69       1.0  0.42485  0.78811  0.14990  1.0000
  C   C70       1.0  0.41940  0.79977  0.08073  1.0000
  C   C71       1.0  0.39732  0.79947  0.08180  1.0000
  C   C72       1.0  0.38066  0.78748  0.15198  1.0000
  H   H41       1.0  0.44156  0.78967  0.14871  1.0000
  H   H42       1.0  0.43178  0.80900  0.03074  1.0000
  H   H43       1.0  0.39361  0.80846  0.03256  1.0000
  H   H44       1.0  0.36525  0.78858  0.15227  1.0000
  C   C73       1.0  0.77328  0.40637  0.31482  1.0000
  C   C74       1.0  0.77742  0.39668  0.23384  1.0000
  C   C75       1.0  0.77414  0.37272  0.23506  1.0000
  C   C76       1.0  0.77044  0.36046  0.32015  1.0000
  C   C77       1.0  0.77372  0.36191  0.15013  1.0000
  C   C78       1.0  0.77975  0.37513  0.06867  1.0000
  C   C79       1.0  0.78638  0.39958  0.07012  1.0000
  C   C80       1.0  0.78501  0.41017  0.15179  1.0000
  H   H45       1.0  0.76840  0.34401  0.14529  1.0000
  H   H46       1.0  0.77975  0.36705  0.00856  1.0000
  H   H47       1.0  0.79132  0.40943  0.01120  1.0000
  H   H48       1.0  0.78985  0.42802  0.15015  1.0000
  C   C81       1.0  0.60922  0.35936  0.35061  1.0000
  C   C82       1.0  0.62379  0.36731  0.27040  1.0000
  C   C83       1.0  0.64627  0.38985  0.27223  1.0000
  C   C84       1.0  0.65347  0.40375  0.35417  1.0000
  C   C85       1.0  0.66126  0.39677  0.19370  1.0000
  C   C86       1.0  0.65407  0.38284  0.11398  1.0000
  C   C87       1.0  0.63220  0.36094  0.11220  1.0000
  C   C88       1.0  0.61760  0.35301  0.19014  1.0000
  H   H49       1.0  0.67807  0.41170  0.19339  1.0000
  H   H50       1.0  0.66523  0.38816  0.05847  1.0000
  H   H51       1.0  0.62739  0.35026  0.05537  1.0000
  H   H52       1.0  0.60270  0.33620  0.18720  1.0000
  C   C89       1.0  0.65123  0.23902  0.29356  1.0000
  C   C90       1.0  0.63427  0.22759  0.22171  1.0000
  C   C91       1.0  0.61190  0.22780  0.22326  1.0000
  C   C92       1.0  0.60716  0.23944  0.29660  1.0000
  C   C93       1.0  0.59468  0.21542  0.15361  1.0000
  C   C94       1.0  0.59942  0.20364  0.08286  1.0000
  C   C95       1.0  0.62125  0.20344  0.08136  1.0000
  C   C96       1.0  0.63835  0.21503  0.15060  1.0000
  H   H53       1.0  0.57813  0.21423  0.15420  1.0000
  H   H54       1.0  0.58672  0.19470  0.03352  1.0000
  H   H55       1.0  0.62445  0.19435  0.03094  1.0000
  H   H56       1.0  0.65353  0.21354  0.14906  1.0000
  N   N13       1.0  0.14160  0.26087  0.36241  1.0000
  C   C97       1.0  0.11545  0.24793  0.35964  1.0000
  C   C98       1.0  0.15493  0.28700  0.36572  1.0000
  C   C99       1.0  0.15468  0.24788  0.35730  1.0000
  C   C100      1.0  0.15892  0.23997  0.27309  1.0000
  C   C101      1.0  0.17182  0.22736  0.26756  1.0000
  C   C102      1.0  0.18279  0.22351  0.34490  1.0000
  C   C103      1.0  0.17788  0.23084  0.42960  1.0000
  C   C104      1.0  0.16404  0.24254  0.43568  1.0000
  C   C105      1.0  0.10144  0.24961  0.43094  1.0000
  C   C106      1.0  0.07583  0.23780  0.42613  1.0000
  C   C107      1.0  0.06292  0.22365  0.34970  1.0000
  C   C108      1.0  0.07696  0.22090  0.28107  1.0000
  C   C109      1.0  0.10248  0.23318  0.28482  1.0000
  C   C110      1.0  0.15300  0.30141  0.29664  1.0000
  C   C111      1.0  0.16538  0.32702  0.30251  1.0000
  C   C112      1.0  0.18035  0.33952  0.37780  1.0000
  C   C113      1.0  0.18329  0.32504  0.44406  1.0000
  C   C114      1.0  0.17050  0.29952  0.43927  1.0000
  H   H57       1.0  0.06664  0.24032  0.47803  1.0000
  H   H58       1.0  0.10998  0.26009  0.48643  1.0000
  H   H59       1.0  0.11156  0.23130  0.23126  1.0000
  H   H60       1.0  0.06864  0.21033  0.22548  1.0000
  H   H61       1.0  0.15271  0.24351  0.21436  1.0000
  H   H62       1.0  0.17366  0.22147  0.20497  1.0000
  H   H63       1.0  0.14197  0.29317  0.24207  1.0000
  H   H64       1.0  0.16270  0.33652  0.25225  1.0000
  H   H65       1.0  0.19445  0.33306  0.49857  1.0000
  H   H66       1.0  0.17259  0.29004  0.49096  1.0000
  H   H67       1.0  0.16109  0.24753  0.49830  1.0000
  H   H68       1.0  0.18491  0.22820  0.48818  1.0000
  N   N14       1.0  0.74892  0.87267  0.34669  1.0000
  C   C115      1.0  0.76208  0.85977  0.34420  1.0000
  C   C116      1.0  0.72282  0.85979  0.35023  1.0000
  C   C117      1.0  0.76202  0.89867  0.34174  1.0000
  C   C118      1.0  0.76863  0.91084  0.25728  1.0000
  C   C119      1.0  0.78130  0.93637  0.25233  1.0000
  C   C120      1.0  0.78693  0.95101  0.33128  1.0000
  C   C121      1.0  0.78099  0.93873  0.41595  1.0000
  C   C122      1.0  0.76891  0.91317  0.42104  1.0000
  C   C123      1.0  0.76221  0.84584  0.41888  1.0000
  C   C124      1.0  0.77459  0.83261  0.41501  1.0000
  C   C125      1.0  0.78732  0.83262  0.33598  1.0000
  C   C126      1.0  0.78793  0.84735  0.26274  1.0000
  C   C127      1.0  0.77535  0.86031  0.26631  1.0000
  C   C128      1.0  0.70845  0.84313  0.28190  1.0000
  C   C129      1.0  0.68285  0.82992  0.28767  1.0000
  C   C130      1.0  0.67030  0.83273  0.36200  1.0000
  C   C131      1.0  0.68475  0.85045  0.42745  1.0000
  C   C132      1.0  0.71029  0.86321  0.42281  1.0000
  H   H69       1.0  0.77354  0.82222  0.46972  1.0000
  H   H70       1.0  0.75282  0.84495  0.47650  1.0000
  H   H71       1.0  0.77570  0.86997  0.21043  1.0000
  H   H72       1.0  0.79709  0.84823  0.20444  1.0000
  H   H73       1.0  0.76405  0.90109  0.19824  1.0000
  H   H74       1.0  0.78584  0.94427  0.18944  1.0000
  H   H75       1.0  0.71672  0.84011  0.22799  1.0000
  H   H76       1.0  0.67338  0.81751  0.23799  1.0000
  H   H77       1.0  0.67670  0.85386  0.48115  1.0000
  H   H78       1.0  0.71979  0.87515  0.47357  1.0000
  H   H79       1.0  0.76472  0.90506  0.48354  1.0000
  H   H80       1.0  0.78482  0.94837  0.47523  1.0000
  N   N15       1.0  0.13985  0.86973  0.35252  1.0000
  C   C133      1.0  0.15285  0.89581  0.35094  1.0000
  C   C134      1.0  0.15282  0.85654  0.35643  1.0000
  C   C135      1.0  0.11380  0.85700  0.34743  1.0000
  C   C136      1.0  0.10156  0.85298  0.26357  1.0000
  C   C137      1.0  0.07603  0.84039  0.25885  1.0000
  C   C138      1.0  0.06133  0.82974  0.33674  1.0000
  C   C139      1.0  0.07370  0.83466  0.42113  1.0000
  C   C140      1.0  0.09925  0.84815  0.42637  1.0000
  C   C141      1.0  0.16652  0.90971  0.42635  1.0000
  C   C142      1.0  0.18012  0.93532  0.42267  1.0000
  C   C143      1.0  0.18075  0.94818  0.34310  1.0000
  C   C144      1.0  0.16625  0.93423  0.26915  1.0000
  C   C145      1.0  0.15299  0.90872  0.27248  1.0000
  C   C146      1.0  0.17158  0.86089  0.29449  1.0000
  C   C147      1.0  0.18502  0.84874  0.30174  1.0000
  C   C148      1.0  0.18017  0.83129  0.37051  1.0000
  C   C149      1.0  0.16010  0.82569  0.42754  1.0000
  C   C150      1.0  0.14741  0.83851  0.42286  1.0000
  H   H81       1.0  0.19032  0.94454  0.47791  1.0000
  H   H82       1.0  0.16701  0.90109  0.48426  1.0000
  H   H83       1.0  0.14372  0.89956  0.21578  1.0000
  H   H84       1.0  0.16583  0.94262  0.21041  1.0000
  H   H85       1.0  0.11123  0.85910  0.20464  1.0000
  H   H86       1.0  0.06818  0.83857  0.19651  1.0000
  H   H87       1.0  0.17613  0.87367  0.24485  1.0000
  H   H88       1.0  0.19898  0.85330  0.25729  1.0000
  H   H89       1.0  0.15468  0.81230  0.47518  1.0000
  H   H90       1.0  0.13382  0.83425  0.46851  1.0000
  H   H91       1.0  0.10732  0.85114  0.48877  1.0000
  H   H92       1.0  0.06412  0.82788  0.48006  1.0000
  N   N16       1.0  0.87928  0.74239  0.35300  1.0000
  C   C151      1.0  0.90536  0.75549  0.35099  1.0000
  C   C152      1.0  0.86617  0.71624  0.35826  1.0000
  C   C153      1.0  0.86643  0.75559  0.34687  1.0000
  C   C154      1.0  0.86235  0.76354  0.26251  1.0000
  C   C155      1.0  0.84954  0.77626  0.25673  1.0000
  C   C156      1.0  0.83867  0.78028  0.33399  1.0000
  C   C157      1.0  0.84366  0.77313  0.41889  1.0000
  C   C158      1.0  0.85740  0.76133  0.42520  1.0000
  C   C159      1.0  0.91935  0.75585  0.42632  1.0000
  C   C160      1.0  0.94495  0.76777  0.42211  1.0000
  C   C161      1.0  0.95771  0.77975  0.34207  1.0000
  C   C162      1.0  0.94369  0.78019  0.26820  1.0000
  C   C163      1.0  0.91818  0.76803  0.27207  1.0000
  C   C164      1.0  0.87061  0.70165  0.29753  1.0000
  C   C165      1.0  0.85856  0.67610  0.30621  1.0000
  C   C166      1.0  0.84114  0.66371  0.37531  1.0000
  C   C167      1.0  0.83543  0.67833  0.43099  1.0000
  C   C168      1.0  0.84816  0.70382  0.42496  1.0000
  H   H93       1.0  0.95422  0.76684  0.47729  1.0000
  H   H94       1.0  0.91080  0.74687  0.48452  1.0000
  H   H95       1.0  0.90896  0.76801  0.21535  1.0000
  H   H96       1.0  0.95200  0.78881  0.20910  1.0000
  H   H97       1.0  0.86857  0.75994  0.20394  1.0000
  H   H98       1.0  0.84773  0.78211  0.19404  1.0000
  H   H99       1.0  0.88335  0.70973  0.24769  1.0000
  H   H100      1.0  0.86317  0.66657  0.26262  1.0000
  H   H101      1.0  0.82203  0.67050  0.47865  1.0000
  H   H102      1.0  0.84384  0.71327  0.46977  1.0000
  H   H103      1.0  0.86042  0.75647  0.48796  1.0000
  H   H104      1.0  0.83675  0.77594  0.47745  1.0000
  N   N17       1.0  0.27181  0.13028  0.35594  1.0000
  C   C169      1.0  0.25876  0.14331  0.35356  1.0000
  C   C170      1.0  0.29793  0.14324  0.35937  1.0000
  C   C171      1.0  0.25872  0.10423  0.35108  1.0000
  C   C172      1.0  0.25014  0.09197  0.26740  1.0000
  C   C173      1.0  0.23739  0.06645  0.26248  1.0000
  C   C174      1.0  0.23387  0.05177  0.33993  1.0000
  C   C175      1.0  0.24175  0.06412  0.42422  1.0000
  C   C176      1.0  0.25370  0.08967  0.42968  1.0000
  C   C177      1.0  0.25841  0.15692  0.42900  1.0000
  C   C178      1.0  0.24623  0.17036  0.42546  1.0000
  C   C179      1.0  0.23392  0.17091  0.34602  1.0000
  C   C180      1.0  0.23351  0.15649  0.27200  1.0000
  C   C181      1.0  0.24593  0.14339  0.27518  1.0000
  C   C182      1.0  0.31220  0.15965  0.29022  1.0000
  C   C183      1.0  0.33780  0.17298  0.29562  1.0000
  C   C184      1.0  0.35047  0.17053  0.37040  1.0000
  C   C185      1.0  0.33613  0.15304  0.43666  1.0000
  C   C186      1.0  0.31059  0.14022  0.43245  1.0000
  H   H105      1.0  0.24714  0.18051  0.48079  1.0000
  H   H106      1.0  0.26752  0.15744  0.48696  1.0000
  H   H107      1.0  0.24586  0.13416  0.21843  1.0000
  H   H108      1.0  0.22464  0.15599  0.21333  1.0000
  H   H109      1.0  0.25332  0.10164  0.20862  1.0000
  H   H110      1.0  0.23113  0.05861  0.20030  1.0000
  H   H111      1.0  0.30386  0.16238  0.23587  1.0000
  H   H112      1.0  0.34719  0.18517  0.24524  1.0000
  H   H113      1.0  0.34425  0.14987  0.49073  1.0000
  H   H114      1.0  0.30124  0.12858  0.48410  1.0000
  H   H115      1.0  0.25906  0.09770  0.49201  1.0000
  H   H116      1.0  0.23935  0.05452  0.48282  1.0000
  N   N18       1.0  0.88045  0.13297  0.35310  1.0000
  C   C187      1.0  0.86738  0.10697  0.34707  1.0000
  C   C188      1.0  0.86706  0.14570  0.35541  1.0000
  C   C189      1.0  0.90657  0.14583  0.35204  1.0000
  C   C190      1.0  0.91960  0.14352  0.27861  1.0000
  C   C191      1.0  0.94515  0.15622  0.27659  1.0000
  C   C192      1.0  0.95914  0.17286  0.34571  1.0000
  C   C193      1.0  0.94610  0.17460  0.42071  1.0000
  C   C194      1.0  0.92046  0.16138  0.42383  1.0000
  C   C195      1.0  0.85983  0.09219  0.42560  1.0000
  C   C196      1.0  0.84601  0.06665  0.41920  1.0000
  C   C197      1.0  0.83927  0.05468  0.33391  1.0000
  C   C198      1.0  0.84827  0.06961  0.25565  1.0000
  C   C199      1.0  0.86139  0.09511  0.26194  1.0000
  C   C200      1.0  0.85055  0.14178  0.42649  1.0000
  C   C201      1.0  0.83747  0.15424  0.43020  1.0000
  C   C202      1.0  0.84096  0.17218  0.36543  1.0000
  C   C203      1.0  0.85692  0.17552  0.29255  1.0000
  C   C204      1.0  0.86960  0.16258  0.28760  1.0000
  H   H117      1.0  0.84022  0.05682  0.47804  1.0000
  H   H118      1.0  0.86394  0.10007  0.48851  1.0000
  H   H119      1.0  0.86654  0.10510  0.20342  1.0000
  H   H120      1.0  0.84470  0.06196  0.19230  1.0000
  H   H121      1.0  0.91050  0.13247  0.22520  1.0000
  H   H122      1.0  0.95355  0.15364  0.22201  1.0000
  H   H123      1.0  0.84789  0.12965  0.47678  1.0000
  H   H124      1.0  0.82559  0.15044  0.48278  1.0000
  H   H125      1.0  0.86003  0.18809  0.24335  1.0000
  H   H126      1.0  0.88128  0.16595  0.23474  1.0000
  H   H127      1.0  0.91182  0.16360  0.47838  1.0000
  H   H128      1.0  0.95525  0.18622  0.47291  1.0000
  N   N19       1.0  0.27108  0.52181  0.36764  1.0000
  C   C205      1.0  0.29634  0.53608  0.34622  1.0000
  C   C206      1.0  0.25862  0.49577  0.37004  1.0000
  C   C207      1.0  0.25953  0.53600  0.38054  1.0000
  C   C208      1.0  0.26815  0.55407  0.44885  1.0000
  C   C209      1.0  0.26441  0.57402  0.44276  1.0000
  C   C210      1.0  0.25130  0.57631  0.36947  1.0000
  C   C211      1.0  0.23978  0.55648  0.30891  1.0000
  C   C212      1.0  0.24439  0.53707  0.31270  1.0000
  C   C213      1.0  0.31415  0.54127  0.41337  1.0000
  C   C214      1.0  0.33817  0.56035  0.40212  1.0000
  C   C215      1.0  0.34537  0.57537  0.32394  1.0000
  C   C216      1.0  0.32726  0.57018  0.25771  1.0000
  C   C217      1.0  0.30356  0.55053  0.26693  1.0000
  C   C218      1.0  0.26221  0.48337  0.44260  1.0000
  C   C219      1.0  0.24976  0.45782  0.44681  1.0000
  C   C220      1.0  0.23236  0.44329  0.38052  1.0000
  C   C221      1.0  0.22963  0.45573  0.30574  1.0000
  C   C222      1.0  0.24249  0.48131  0.30057  1.0000
  H   H129      1.0  0.35020  0.56389  0.45392  1.0000
  H   H130      1.0  0.30933  0.53232  0.47413  1.0000
  H   H131      1.0  0.29088  0.54847  0.21985  1.0000
  H   H132      1.0  0.33074  0.58151  0.20357  1.0000
  H   H133      1.0  0.27982  0.55441  0.49722  1.0000
  H   H134      1.0  0.27323  0.58793  0.48800  1.0000
  H   H135      1.0  0.27376  0.49295  0.49422  1.0000
  H   H136      1.0  0.25309  0.44982  0.50088  1.0000
  H   H137      1.0  0.21759  0.44619  0.25511  1.0000
  H   H138      1.0  0.23984  0.48936  0.24523  1.0000
  H   H139      1.0  0.23857  0.52508  0.25999  1.0000
  H   H140      1.0  0.22977  0.55713  0.25575  1.0000
  N   N20       1.0  0.48791  0.74082  0.34140  1.0000
  C   C223      1.0  0.47437  0.75260  0.32063  1.0000
  C   C224      1.0  0.51395  0.75415  0.34687  1.0000
  C   C225      1.0  0.47301  0.71502  0.35319  1.0000
  C   C226      1.0  0.45329  0.70554  0.41481  1.0000
  C   C227      1.0  0.43361  0.68181  0.40526  1.0000
  C   C228      1.0  0.43331  0.66590  0.33728  1.0000
  C   C229      1.0  0.45504  0.67422  0.28713  1.0000
  C   C230      1.0  0.47389  0.69851  0.29158  1.0000
  C   C231      1.0  0.46788  0.76341  0.39092  1.0000
  C   C232      1.0  0.44842  0.76777  0.38061  1.0000
  C   C233      1.0  0.43480  0.76172  0.29917  1.0000
  C   C234      1.0  0.44167  0.75140  0.22811  1.0000
  C   C235      1.0  0.46118  0.74712  0.23833  1.0000
  C   C236      1.0  0.52597  0.76980  0.42071  1.0000
  C   C237      1.0  0.55151  0.78294  0.42675  1.0000
  C   C238      1.0  0.56644  0.78044  0.36117  1.0000
  C   C239      1.0  0.55436  0.76565  0.28505  1.0000
  C   C240      1.0  0.52881  0.75294  0.27795  1.0000
  H   H141      1.0  0.44364  0.77456  0.43479  1.0000
  H   H142      1.0  0.47580  0.76606  0.45345  1.0000
  H   H143      1.0  0.46431  0.73788  0.18833  1.0000
  H   H144      1.0  0.43155  0.74553  0.16991  1.0000
  H   H145      1.0  0.45163  0.71677  0.46004  1.0000
  H   H146      1.0  0.41871  0.67683  0.44515  1.0000
  H   H147      1.0  0.51612  0.77161  0.47164  1.0000
  H   H148      1.0  0.55920  0.79412  0.48142  1.0000
  H   H149      1.0  0.56417  0.76350  0.23456  1.0000
  H   H150      1.0  0.52107  0.74269  0.22135  1.0000
  H   H151      1.0  0.48766  0.70429  0.24567  1.0000
  H   H152      1.0  0.45677  0.66307  0.24167  1.0000
  N   N21       1.0  0.27118  0.73975  0.34871  1.0000
  C   C241      1.0  0.25997  0.71412  0.36370  1.0000
  C   C242      1.0  0.25865  0.75329  0.35368  1.0000
  C   C243      1.0  0.29648  0.75080  0.32807  1.0000
  C   C244      1.0  0.30401  0.74560  0.24481  1.0000
  C   C245      1.0  0.32781  0.75001  0.23304  1.0000
  C   C246      1.0  0.34524  0.76028  0.30337  1.0000
  C   C247      1.0  0.33775  0.76575  0.38627  1.0000
  C   C248      1.0  0.31388  0.76108  0.39833  1.0000
  C   C249      1.0  0.24568  0.69758  0.29521  1.0000
  C   C250      1.0  0.24082  0.67347  0.29563  1.0000
  C   C251      1.0  0.25175  0.66550  0.36031  1.0000
  C   C252      1.0  0.26427  0.68136  0.43328  1.0000
  C   C253      1.0  0.26797  0.70508  0.43560  1.0000
  C   C254      1.0  0.23923  0.74879  0.29502  1.0000
  C   C255      1.0  0.22650  0.76160  0.30293  1.0000
  C   C256      1.0  0.23271  0.77988  0.36935  1.0000
  C   C257      1.0  0.25337  0.78559  0.42304  1.0000
  C   C258      1.0  0.26554  0.77225  0.41722  1.0000
  H   H153      1.0  0.23124  0.66251  0.24246  1.0000
  H   H154      1.0  0.24048  0.70346  0.23975  1.0000
  H   H155      1.0  0.27895  0.71658  0.48508  1.0000
  H   H156      1.0  0.27254  0.67649  0.48175  1.0000
  H   H157      1.0  0.29157  0.73668  0.19468  1.0000
  H   H158      1.0  0.33199  0.74452  0.17375  1.0000
  H   H159      1.0  0.23386  0.73579  0.24609  1.0000
  H   H160      1.0  0.21210  0.75697  0.26067  1.0000
  H   H161      1.0  0.25964  0.79948  0.46888  1.0000
  H   H162      1.0  0.27970  0.77665  0.46019  1.0000
  H   H163      1.0  0.30877  0.76350  0.46151  1.0000
  H   H164      1.0  0.34948  0.77245  0.44005  1.0000
  N   N22       1.0  0.74981  0.48109  0.36386  1.0000
  C   C259      1.0  0.72408  0.46673  0.37742  1.0000
  C   C260      1.0  0.76337  0.50719  0.36717  1.0000
  C   C261      1.0  0.76084  0.46679  0.34339  1.0000
  C   C262      1.0  0.75400  0.45253  0.26360  1.0000
  C   C263      1.0  0.75817  0.43296  0.25422  1.0000
  C   C264      1.0  0.77074  0.42754  0.32128  1.0000
  C   C265      1.0  0.77800  0.44221  0.40034  1.0000
  C   C266      1.0  0.77293  0.46120  0.41153  1.0000
  C   C267      1.0  0.70780  0.46505  0.30878  1.0000
  C   C268      1.0  0.68380  0.44564  0.30616  1.0000
  C   C269      1.0  0.67564  0.42613  0.36811  1.0000
  C   C270      1.0  0.69114  0.42887  0.44166  1.0000
  C   C271      1.0  0.71477  0.44898  0.44692  1.0000
  C   C272      1.0  0.75948  0.52192  0.30523  1.0000
  C   C273      1.0  0.77221  0.54748  0.31191  1.0000
  C   C274      1.0  0.78990  0.55979  0.38008  1.0000
  C   C275      1.0  0.79516  0.54502  0.43685  1.0000
  C   C276      1.0  0.78179  0.51951  0.43250  1.0000
  H   H165      1.0  0.67308  0.44466  0.25271  1.0000
  H   H166      1.0  0.71383  0.47658  0.25469  1.0000
  H   H167      1.0  0.72613  0.44901  0.49599  1.0000
  H   H168      1.0  0.68613  0.41523  0.48804  1.0000
  H   H169      1.0  0.74373  0.45484  0.21556  1.0000
  H   H170      1.0  0.75062  0.42182  0.19938  1.0000
  H   H171      1.0  0.74705  0.51416  0.25452  1.0000
  H   H172      1.0  0.76799  0.55710  0.26719  1.0000
  H   H173      1.0  0.80871  0.55278  0.48401  1.0000
  H   H174      1.0  0.78573  0.50994  0.47814  1.0000
  H   H175      1.0  0.77645  0.46965  0.47319  1.0000
  H   H176      1.0  0.78611  0.43845  0.45290  1.0000
  N   N23       1.0  0.53267  0.26247  0.35167  1.0000
  C   C277      1.0  0.54691  0.25144  0.33088  1.0000
  C   C278      1.0  0.50665  0.24889  0.35571  1.0000
  C   C279      1.0  0.54694  0.28813  0.36601  1.0000
  C   C280      1.0  0.56425  0.29728  0.43698  1.0000
  C   C281      1.0  0.58409  0.32107  0.43403  1.0000
  C   C282      1.0  0.58697  0.33686  0.36141  1.0000
  C   C283      1.0  0.56778  0.32874  0.29788  1.0000
  C   C284      1.0  0.54857  0.30460  0.29832  1.0000
  C   C285      1.0  0.55375  0.24079  0.40056  1.0000
  C   C286      1.0  0.57309  0.23630  0.38846  1.0000
  C   C287      1.0  0.58630  0.24220  0.30602  1.0000
  C   C288      1.0  0.57929  0.25272  0.23615  1.0000
  C   C289      1.0  0.55984  0.25703  0.24799  1.0000
  C   C290      1.0  0.49451  0.23230  0.42694  1.0000
  C   C291      1.0  0.46898  0.21918  0.43244  1.0000
  C   C292      1.0  0.45423  0.22254  0.36870  1.0000
  C   C293      1.0  0.46640  0.23838  0.29518  1.0000
  C   C294      1.0  0.49196  0.25119  0.28888  1.0000
  H   H177      1.0  0.57797  0.22934  0.44180  1.0000
  H   H178      1.0  0.54592  0.23796  0.46332  1.0000
  H   H179      1.0  0.55637  0.26607  0.19821  1.0000
  H   H180      1.0  0.58906  0.25841  0.17714  1.0000
  H   H181      1.0  0.56407  0.28582  0.48594  1.0000
  H   H182      1.0  0.59746  0.32606  0.48163  1.0000
  H   H183      1.0  0.50428  0.22985  0.47657  1.0000
  H   H184      1.0  0.46115  0.20743  0.48555  1.0000
  H   H185      1.0  0.45668  0.24130  0.24652  1.0000
  H   H186      1.0  0.49982  0.26244  0.23470  1.0000
  H   H187      1.0  0.53709  0.29864  0.24400  1.0000
  H   H188      1.0  0.56884  0.33968  0.24510  1.0000
  N   N24       1.0  0.74883  0.26249  0.34119  1.0000
  C   C295      1.0  0.75959  0.28828  0.35280  1.0000
  C   C296      1.0  0.76167  0.24927  0.34699  1.0000
  C   C297      1.0  0.72347  0.25061  0.32060  1.0000
  C   C298      1.0  0.71565  0.25601  0.23844  1.0000
  C   C299      1.0  0.69184  0.25171  0.22874  1.0000
  C   C300      1.0  0.67472  0.24132  0.30000  1.0000
  C   C301      1.0  0.68241  0.23532  0.38125  1.0000
  C   C302      1.0  0.70628  0.23976  0.39119  1.0000
  C   C303      1.0  0.77698  0.30481  0.29116  1.0000
  C   C304      1.0  0.78229  0.32905  0.28633  1.0000
  C   C305      1.0  0.76875  0.33730  0.33608  1.0000
  C   C306      1.0  0.75319  0.32141  0.40419  1.0000
  C   C307      1.0  0.74926  0.29774  0.41412  1.0000
  C   C308      1.0  0.77802  0.25074  0.27878  1.0000
  C   C309      1.0  0.79106  0.23825  0.28642  1.0000
  C   C310      1.0  0.78825  0.22336  0.36234  1.0000
  C   C311      1.0  0.77049  0.22052  0.42696  1.0000
  C   C312      1.0  0.75794  0.23350  0.42052  1.0000
  H   H189      1.0  0.79517  0.34021  0.24092  1.0000
  H   H190      1.0  0.78502  0.29906  0.24538  1.0000
  H   H191      1.0  0.73646  0.28650  0.45960  1.0000
  H   H192      1.0  0.74323  0.32635  0.44401  1.0000
  H   H193      1.0  0.72797  0.26527  0.18828  1.0000
  H   H194      1.0  0.68749  0.25750  0.17061  1.0000
  H   H195      1.0  0.78063  0.26107  0.22230  1.0000
  H   H196      1.0  0.80325  0.24064  0.23653  1.0000
  H   H197      1.0  0.76688  0.20923  0.48136  1.0000
  H   H198      1.0  0.74607  0.23147  0.47096  1.0000
  H   H199      1.0  0.71164  0.23724  0.45372  1.0000
  H   H200      1.0  0.67092  0.22856  0.43566  1.0000
  C   C313      1.0  0.19191  0.36558  0.38727  1.0000
  C   C314      1.0  0.19129  0.37827  0.46637  1.0000
  C   C315      1.0  0.20444  0.40431  0.46723  1.0000
  C   C316      1.0  0.21798  0.41723  0.38892  1.0000
  C   C317      1.0  0.20245  0.41646  0.54485  1.0000
  C   C318      1.0  0.18883  0.40371  0.62106  1.0000
  C   C319      1.0  0.17604  0.37842  0.62021  1.0000
  C   C320      1.0  0.17690  0.36591  0.54321  1.0000
  H   H201      1.0  0.21025  0.43482  0.54665  1.0000
  H   H202      1.0  0.16612  0.34756  0.54376  1.0000
  C   C321      1.0  0.64422  0.81825  0.37104  1.0000
  C   C322      1.0  0.63138  0.80513  0.45023  1.0000
  C   C323      1.0  0.60533  0.79203  0.45011  1.0000
  C   C324      1.0  0.59251  0.79233  0.37087  1.0000
  C   C325      1.0  0.59309  0.77802  0.52784  1.0000
  C   C326      1.0  0.60571  0.77750  0.60504  1.0000
  C   C327      1.0  0.63100  0.79024  0.60521  1.0000
  C   C328      1.0  0.64363  0.80349  0.52816  1.0000
  H   H203      1.0  0.57474  0.76729  0.52907  1.0000
  H   H204      1.0  0.59649  0.76719  0.66007  1.0000
  H   H205      1.0  0.64023  0.78923  0.66036  1.0000
  H   H206      1.0  0.66200  0.81126  0.52959  1.0000
  C   C329      1.0  0.19435  0.81935  0.38068  1.0000
  C   C330      1.0  0.20154  0.81354  0.46473  1.0000
  C   C331      1.0  0.21257  0.79865  0.46459  1.0000
  C   C332      1.0  0.21901  0.79227  0.38020  1.0000
  C   C333      1.0  0.21606  0.79013  0.54929  1.0000
  C   C334      1.0  0.21162  0.79812  0.63211  1.0000
  C   C335      1.0  0.20377  0.81501  0.63213  1.0000
  C   C336      1.0  0.19876  0.82258  0.54944  1.0000
  H   H207      1.0  0.22155  0.77764  0.55248  1.0000
  H   H208      1.0  0.19335  0.83513  0.55265  1.0000
  C   C337      1.0  0.82928  0.63765  0.38701  1.0000
  C   C338      1.0  0.82335  0.62500  0.47183  1.0000
  C   C339      1.0  0.80839  0.59909  0.47305  1.0000
  C   C340      1.0  0.80223  0.58592  0.38943  1.0000
  C   C341      1.0  0.79960  0.58748  0.55826  1.0000
  C   C342      1.0  0.80750  0.60023  0.64046  1.0000
  C   C343      1.0  0.82456  0.62493  0.63935  1.0000
  C   C344      1.0  0.83230  0.63714  0.55603  1.0000
  H   H209      1.0  0.78696  0.56956  0.56225  1.0000
  H   H210      1.0  0.84493  0.65510  0.55840  1.0000
  C   C345      1.0  0.37655  0.18505  0.37901  1.0000
  C   C346      1.0  0.38947  0.19813  0.45817  1.0000
  C   C347      1.0  0.41551  0.21102  0.45796  1.0000
  C   C348      1.0  0.42820  0.21072  0.37840  1.0000
  C   C349      1.0  0.42790  0.22481  0.53589  1.0000
  C   C350      1.0  0.41538  0.22546  0.61322  1.0000
  C   C351      1.0  0.39009  0.21305  0.61331  1.0000
  C   C352      1.0  0.37735  0.19995  0.53618  1.0000
  H   H211      1.0  0.44628  0.23528  0.53716  1.0000
  H   H212      1.0  0.35901  0.19244  0.53757  1.0000
  C   C353      1.0  0.82903  0.18637  0.37394  1.0000
  C   C354      1.0  0.82861  0.19900  0.45356  1.0000
  C   C355      1.0  0.81538  0.21183  0.45290  1.0000
  C   C356      1.0  0.80267  0.21172  0.37273  1.0000
  C   C357      1.0  0.81651  0.22540  0.53115  1.0000
  C   C358      1.0  0.82921  0.22569  0.60938  1.0000
  C   C359      1.0  0.84200  0.21319  0.61010  1.0000
  C   C360      1.0  0.84207  0.20043  0.53258  1.0000
  H   H213      1.0  0.80874  0.23600  0.53213  1.0000
  H   H214      1.0  0.82983  0.23568  0.66478  1.0000
  H   H215      1.0  0.85193  0.21405  0.66604  1.0000
  H   H216      1.0  0.85285  0.19287  0.53456  1.0000
  N   N25       1.0  0.19454  0.19533  0.40107  1.0000
  N   N26       1.0  0.20617  0.18323  0.40179  1.0000
  N   N27       1.0  0.81758  0.99083  0.37916  1.0000
  N   N28       1.0  0.82955  0.01455  0.37977  1.0000
  N   N29       1.0  0.02172  0.81872  0.39413  1.0000
  N   N30       1.0  0.99800  0.80733  0.39588  1.0000
  N   N31       1.0  0.82692  0.80844  0.39024  1.0000
  N   N32       1.0  0.81525  0.82049  0.39120  1.0000
  N   N33       1.0  0.20553  0.01205  0.39695  1.0000
  N   N34       1.0  0.19332  0.98832  0.39815  1.0000
  N   N35       1.0  0.99891  0.18774  0.41059  1.0000
  N   N36       1.0  0.02267  0.19937  0.41153  1.0000
  N   N37       1.0  0.24633  0.62888  0.42530  1.0000
  N   N38       1.0  0.24619  0.60836  0.42741  1.0000
  N   N39       1.0  0.37821  0.61014  0.39360  1.0000
  N   N40       1.0  0.39811  0.63109  0.39577  1.0000
  N   N41       1.0  0.39679  0.75358  0.35933  1.0000
  N   N42       1.0  0.37615  0.75323  0.36020  1.0000
  N   N43       1.0  0.76795  0.37194  0.39378  1.0000
  N   N44       1.0  0.76882  0.39281  0.39124  1.0000
  N   N45       1.0  0.63860  0.39411  0.42708  1.0000
  N   N46       1.0  0.61820  0.37362  0.42542  1.0000
  N   N47       1.0  0.62431  0.24931  0.36256  1.0000
  N   N48       1.0  0.64468  0.24912  0.36115  1.0000
