data_image0
_chemical_formula_structural       C5NC4H2CH3NHCNC4H2CH3NHCNC4H2CH3NHC5H3C2O3C5H3C2O3C4HCNHCH3NHC4HCNHCH3NHC4HCNHCH3NH
_chemical_formula_sum              "C54 N12 H42 O6"
_cell_length_a       29.5016
_cell_length_b       29.5016
_cell_length_c       15.1125
_cell_angle_alpha    90
_cell_angle_beta     90
_cell_angle_gamma    120

_space_group_name_H-M_alt    "P 1"
_space_group_IT_number       1

loop_
  _space_group_symop_operation_xyz
  'x, y, z'

loop_
  _atom_site_type_symbol
  _atom_site_label
  _atom_site_symmetry_multiplicity
  _atom_site_fract_x
  _atom_site_fract_y
  _atom_site_fract_z
  _atom_site_occupancy
  C   C1        1.0  0.35853  0.63926  0.32396  1.0000
  C   C2        1.0  0.39021  0.61588  0.33053  1.0000
  C   C3        1.0  0.62752  0.35222  0.33026  1.0000
  C   C4        1.0  0.59504  0.37476  0.32445  1.0000
  C   C5        1.0  0.56280  0.45314  0.27232  1.0000
  N   N1        1.0  0.53043  0.47282  0.26779  1.0000
  C   C6        1.0  0.47565  0.50577  0.31465  1.0000
  C   C7        1.0  0.46224  0.51530  0.22783  1.0000
  C   C8        1.0  0.42765  0.53545  0.22104  1.0000
  C   C9        1.0  0.40722  0.54676  0.29657  1.0000
  H   H1        1.0  0.41854  0.54417  0.16036  1.0000
  H   H2        1.0  0.57474  0.44381  0.21511  1.0000
  C   C10       1.0  0.48270  0.50646  0.14318  1.0000
  H   H3        1.0  0.47085  0.46516  0.13679  1.0000
  H   H4        1.0  0.52531  0.53021  0.14188  1.0000
  H   H5        1.0  0.46820  0.51688  0.08460  1.0000
  N   N2        1.0  0.37745  0.56990  0.28963  1.0000
  H   H6        1.0  0.35062  0.55692  0.24370  1.0000
  C   C11       1.0  0.53332  0.10827  0.27410  1.0000
  N   N3        1.0  0.51433  0.05630  0.26959  1.0000
  C   C12       1.0  0.48585  0.96933  0.31631  1.0000
  C   C13       1.0  0.48001  0.94707  0.22952  1.0000
  C   C14       1.0  0.45908  0.89222  0.22245  1.0000
  C   C15       1.0  0.44352  0.85968  0.29757  1.0000
  H   H7        1.0  0.45293  0.87492  0.16152  1.0000
  H   H8        1.0  0.53974  0.12915  0.21697  1.0000
  C   C16       1.0  0.49405  0.97733  0.14513  1.0000
  H   H9        1.0  0.53529  0.00758  0.14617  1.0000
  H   H10       1.0  0.46979  0.99533  0.13649  1.0000
  H   H11       1.0  0.48824  0.95325  0.08670  1.0000
  N   N4        1.0  0.42003  0.80673  0.28977  1.0000
  H   H12       1.0  0.43413  0.79301  0.24556  1.0000
  C   C17       1.0  0.88114  0.42808  0.26999  1.0000
  N   N5        1.0  0.93321  0.46040  0.26544  1.0000
  C   C18       1.0  0.02106  0.51416  0.31235  1.0000
  C   C19       1.0  0.04419  0.52657  0.22561  1.0000
  C   C20       1.0  0.09889  0.56125  0.21882  1.0000
  C   C21       1.0  0.13039  0.58269  0.29433  1.0000
  H   H13       1.0  0.11690  0.56964  0.15829  1.0000
  H   H14       1.0  0.85981  0.41678  0.21282  1.0000
  C   C22       1.0  0.01515  0.50481  0.14114  1.0000
  H   H15       1.0  0.98594  0.51682  0.13253  1.0000
  H   H16       1.0  0.99600  0.46217  0.14205  1.0000
  H   H17       1.0  0.04028  0.51817  0.08272  1.0000
  N   N6        1.0  0.18328  0.61230  0.28760  1.0000
  H   H18       1.0  0.19728  0.63889  0.24129  1.0000
  C   C23       1.0  0.35026  0.71821  0.32275  1.0000
  C   C24       1.0  0.29529  0.68605  0.32268  1.0000
  C   C25       1.0  0.27133  0.63097  0.32300  1.0000
  C   C26       1.0  0.30343  0.60812  0.32406  1.0000
  C   C27       1.0  0.38139  0.69424  0.32380  1.0000
  H   H19       1.0  0.28637  0.56820  0.32720  1.0000
  H   H20       1.0  0.42129  0.71710  0.32696  1.0000
  H   H21       1.0  0.27237  0.70305  0.32489  1.0000
  C   C28       1.0  0.37343  0.77329  0.32875  1.0000
  C   C29       1.0  0.21626  0.59937  0.32897  1.0000
  O   O1        1.0  0.43498  0.64146  0.37836  1.0000
  O   O2        1.0  0.34688  0.79241  0.37394  1.0000
  O   O3        1.0  0.19680  0.55485  0.37755  1.0000
  C   C30       1.0  0.63725  0.27413  0.32922  1.0000
  C   C31       1.0  0.69214  0.30690  0.32845  1.0000
  C   C32       1.0  0.71540  0.36195  0.32922  1.0000
  C   C33       1.0  0.68255  0.38399  0.32963  1.0000
  C   C34       1.0  0.60546  0.29735  0.32970  1.0000
  H   H22       1.0  0.69902  0.42384  0.32699  1.0000
  H   H23       1.0  0.56560  0.27398  0.32720  1.0000
  H   H24       1.0  0.71544  0.29036  0.32497  1.0000
  C   C35       1.0  0.61449  0.21913  0.32304  1.0000
  C   C36       1.0  0.77040  0.39448  0.32276  1.0000
  O   O4        1.0  0.54953  0.34793  0.27896  1.0000
  O   O5        1.0  0.64028  0.20027  0.27496  1.0000
  O   O6        1.0  0.78882  0.44022  0.27802  1.0000
  C   C37       1.0  0.57801  0.44441  0.35567  1.0000
  C   C38       1.0  0.51084  0.48692  0.33698  1.0000
  C   C39       1.0  0.52740  0.48122  0.42374  1.0000
  C   C40       1.0  0.56125  0.46021  0.43077  1.0000
  H   H25       1.0  0.57259  0.45427  0.49169  1.0000
  C   C41       1.0  0.41938  0.53434  0.37959  1.0000
  N   N7        1.0  0.45237  0.51536  0.38393  1.0000
  H   H26       1.0  0.40486  0.54061  0.43678  1.0000
  C   C42       1.0  0.51146  0.49553  0.50814  1.0000
  H   H27       1.0  0.52248  0.53678  0.50683  1.0000
  H   H28       1.0  0.52989  0.48988  0.56651  1.0000
  H   H29       1.0  0.46923  0.47133  0.51717  1.0000
  N   N8        1.0  0.60771  0.42119  0.36359  1.0000
  H   H30       1.0  0.63548  0.43544  0.40791  1.0000
  C   C43       1.0  0.54569  0.13273  0.35722  1.0000
  C   C44       1.0  0.50462  0.02333  0.33877  1.0000
  C   C45       1.0  0.51402  0.04616  0.42568  1.0000
  C   C46       1.0  0.53418  0.10089  0.43265  1.0000
  H   H31       1.0  0.54287  0.11866  0.49339  1.0000
  C   C47       1.0  0.45242  0.88362  0.38094  1.0000
  N   N9        1.0  0.47198  0.93566  0.38548  1.0000
  H   H32       1.0  0.44314  0.86236  0.43813  1.0000
  C   C48       1.0  0.50505  0.01680  0.51027  1.0000
  H   H33       1.0  0.46375  0.98728  0.51641  1.0000
  H   H34       1.0  0.51529  0.04163  0.56893  1.0000
  H   H35       1.0  0.52886  0.99800  0.51173  1.0000
  N   N10       1.0  0.56884  0.18561  0.36453  1.0000
  H   H36       1.0  0.55549  0.19928  0.41016  1.0000
  C   C49       1.0  0.85733  0.41189  0.35328  1.0000
  C   C50       1.0  0.96704  0.47899  0.33456  1.0000
  C   C51       1.0  0.94494  0.46153  0.42116  1.0000
  C   C52       1.0  0.89006  0.42774  0.42820  1.0000
  H   H37       1.0  0.87293  0.41571  0.48907  1.0000
  C   C53       1.0  0.10564  0.57153  0.37717  1.0000
  N   N11       1.0  0.05367  0.53845  0.38153  1.0000
  H   H38       1.0  0.12631  0.58678  0.43424  1.0000
  C   C54       1.0  0.97547  0.47635  0.50528  1.0000
  H   H39       1.0  0.00591  0.46568  0.50197  1.0000
  H   H40       1.0  0.95160  0.45688  0.56339  1.0000
  H   H41       1.0  0.99325  0.51839  0.51632  1.0000
  N   N12       1.0  0.80440  0.38191  0.36127  1.0000
  H   H42       1.0  0.79104  0.35404  0.40537  1.0000
