data_image0
_chemical_formula_structural       C6NHCNHC4HC5HOHOHC4HC5HOHOHC4HC6HOHOHCNCHNHCNCHNHCNCHNHC3H3C6H3C6H3C6H3CNHCNHCNCHNHC4HC6HOHOHC4HC6HOHOHC4HC6HOHOH
_chemical_formula_sum              "C96 N12 H48 O12"
_cell_length_a       34.149
_cell_length_b       34.1596
_cell_length_c       14.9164
_cell_angle_alpha    90
_cell_angle_beta     90
_cell_angle_gamma    119.993

_space_group_name_H-M_alt    "P 1"
_space_group_IT_number       1

loop_
  _space_group_symop_operation_xyz
  'x, y, z'

loop_
  _atom_site_type_symbol
  _atom_site_label
  _atom_site_symmetry_multiplicity
  _atom_site_fract_x
  _atom_site_fract_y
  _atom_site_fract_z
  _atom_site_occupancy
  C   C1        1.0  0.09297  0.04445  0.32383  1.0000
  C   C2        1.0  0.94796  0.04480  0.32589  1.0000
  C   C3        1.0  0.04452  0.02024  0.32635  1.0000
  C   C4        1.0  0.01985  0.04344  0.32588  1.0000
  C   C5        1.0  0.97197  0.02036  0.32812  1.0000
  C   C6        1.0  0.11886  0.03330  0.38137  1.0000
  N   N1        1.0  0.16472  0.05715  0.37895  1.0000
  H   H1        1.0  0.10360  0.00784  0.42738  1.0000
  C   C7        1.0  0.91107  0.03398  0.38365  1.0000
  N   N2        1.0  0.88934  0.05811  0.38129  1.0000
  H   H2        1.0  0.90078  0.00855  0.42976  1.0000
  C   C8        1.0  0.33239  0.16367  0.33040  1.0000
  C   C9        1.0  0.23662  0.11604  0.32330  1.0000
  C   C10       1.0  0.26129  0.15289  0.26390  1.0000
  C   C11       1.0  0.30910  0.17629  0.26880  1.0000
  H   H3        1.0  0.32740  0.20263  0.22585  1.0000
  C   C12       1.0  0.18879  0.09223  0.32198  1.0000
  C   C13       1.0  0.11721  0.08079  0.26361  1.0000
  C   C14       1.0  0.16509  0.10502  0.26128  1.0000
  C   C15       1.0  0.18980  0.14125  0.20107  1.0000
  C   C16       1.0  0.23756  0.16501  0.20236  1.0000
  H   H4        1.0  0.09957  0.08927  0.21977  1.0000
  O   O1        1.0  0.16822  0.15485  0.14285  1.0000
  H   H5        1.0  0.16353  0.13734  0.08755  1.0000
  O   O2        1.0  0.26010  0.20057  0.14536  1.0000
  H   H6        1.0  0.26558  0.18808  0.09042  1.0000
  C   C17       1.0  0.82876  0.16509  0.33119  1.0000
  C   C18       1.0  0.87673  0.11725  0.32529  1.0000
  C   C19       1.0  0.88902  0.15396  0.26545  1.0000
  C   C20       1.0  0.86468  0.17744  0.26973  1.0000
  H   H7        1.0  0.87268  0.20354  0.22614  1.0000
  C   C21       1.0  0.90051  0.09319  0.32417  1.0000
  C   C22       1.0  0.96020  0.08112  0.26553  1.0000
  C   C23       1.0  0.93688  0.10565  0.26330  1.0000
  C   C24       1.0  0.94859  0.14184  0.20288  1.0000
  C   C25       1.0  0.92482  0.16582  0.20392  1.0000
  H   H8        1.0  0.98615  0.08933  0.22142  1.0000
  O   O3        1.0  0.98373  0.15518  0.14463  1.0000
  H   H9        1.0  0.97081  0.13760  0.08943  1.0000
  O   O4        1.0  0.93798  0.20129  0.14664  1.0000
  H   H10       1.0  0.92009  0.18873  0.09164  1.0000
  C   C26       1.0  0.82727  0.66003  0.32993  1.0000
  C   C27       1.0  0.87559  0.75581  0.32526  1.0000
  C   C28       1.0  0.88765  0.73144  0.26476  1.0000
  C   C29       1.0  0.86315  0.68364  0.26844  1.0000
  H   H11       1.0  0.87104  0.66558  0.22453  1.0000
  C   C30       1.0  0.89965  0.80364  0.32482  1.0000
  C   C31       1.0  0.94770  0.89942  0.32771  1.0000
  C   C32       1.0  0.95963  0.87535  0.26674  1.0000
  C   C33       1.0  0.93600  0.82753  0.26391  1.0000
  C   C34       1.0  0.94741  0.80311  0.20274  1.0000
  C   C35       1.0  0.92338  0.75538  0.20314  1.0000
  H   H12       1.0  0.98553  0.89308  0.22251  1.0000
  O   O5        1.0  0.98247  0.82492  0.14430  1.0000
  H   H13       1.0  0.96952  0.82993  0.08951  1.0000
  O   O6        1.0  0.93625  0.73310  0.14509  1.0000
  H   H14       1.0  0.91823  0.72801  0.09036  1.0000
  C   C36       1.0  0.49867  0.16113  0.27074  1.0000
  N   N3        1.0  0.53556  0.15612  0.27562  1.0000
  C   C37       1.0  0.65915  0.16160  0.26936  1.0000
  H   H15       1.0  0.48812  0.16517  0.20897  1.0000
  N   N4        1.0  0.61718  0.15637  0.27493  1.0000
  H   H16       1.0  0.67353  0.16573  0.20734  1.0000
  C   C38       1.0  0.82450  0.33060  0.25282  1.0000
  N   N5        1.0  0.82969  0.37260  0.25603  1.0000
  C   C39       1.0  0.82335  0.49009  0.25073  1.0000
  H   H17       1.0  0.81583  0.31370  0.19295  1.0000
  N   N6        1.0  0.82912  0.45367  0.25494  1.0000
  H   H18       1.0  0.81467  0.49801  0.19053  1.0000
  C   C40       1.0  0.65892  0.49223  0.25978  1.0000
  N   N7        1.0  0.61704  0.45536  0.26486  1.0000
  C   C41       1.0  0.49956  0.33135  0.26196  1.0000
  H   H19       1.0  0.67426  0.50147  0.19837  1.0000
  N   N8        1.0  0.53606  0.37352  0.26597  1.0000
  H   H20       1.0  0.49027  0.31560  0.20097  1.0000
  C   C42       1.0  0.94869  0.97251  0.33070  1.0000
  C   C43       1.0  0.97187  0.94783  0.32991  1.0000
  C   C44       1.0  0.01977  0.97243  0.32831  1.0000
  H   H21       1.0  0.91406  0.95523  0.32896  1.0000
  H   H22       1.0  0.03707  0.95508  0.32767  1.0000
  H   H23       1.0  0.03723  0.07806  0.32656  1.0000
  C   C45       1.0  0.45306  0.18818  0.34544  1.0000
  C   C46       1.0  0.47638  0.23580  0.34539  1.0000
  C   C47       1.0  0.45302  0.26001  0.34054  1.0000
  C   C48       1.0  0.40536  0.23585  0.33559  1.0000
  C   C49       1.0  0.38076  0.18782  0.33571  1.0000
  C   C50       1.0  0.40537  0.16446  0.34079  1.0000
  H   H24       1.0  0.38851  0.25362  0.33356  1.0000
  H   H25       1.0  0.38860  0.12986  0.33952  1.0000
  H   H26       1.0  0.51107  0.25322  0.34887  1.0000
  C   C51       1.0  0.80360  0.26098  0.33430  1.0000
  C   C52       1.0  0.75606  0.23654  0.33969  1.0000
  C   C53       1.0  0.73207  0.18893  0.34266  1.0000
  C   C54       1.0  0.75634  0.16549  0.34055  1.0000
  C   C55       1.0  0.80430  0.18906  0.33502  1.0000
  C   C56       1.0  0.82741  0.23708  0.33228  1.0000
  H   H27       1.0  0.73870  0.13087  0.34122  1.0000
  H   H28       1.0  0.86201  0.25505  0.32987  1.0000
  H   H29       1.0  0.73855  0.25375  0.34164  1.0000
  C   C57       1.0  0.73052  0.53951  0.33623  1.0000
  C   C58       1.0  0.75458  0.51595  0.33380  1.0000
  C   C59       1.0  0.80218  0.53909  0.33101  1.0000
  C   C60       1.0  0.82597  0.58679  0.33087  1.0000
  C   C61       1.0  0.80278  0.61164  0.33302  1.0000
  C   C62       1.0  0.75478  0.58725  0.33640  1.0000
  H   H30       1.0  0.86059  0.60347  0.32993  1.0000
  H   H31       1.0  0.73714  0.60423  0.33658  1.0000
  H   H32       1.0  0.73710  0.48122  0.33443  1.0000
  C   C63       1.0  0.30559  0.12631  0.38659  1.0000
  N   N9        1.0  0.25978  0.10450  0.38165  1.0000
  H   H33       1.0  0.32011  0.11576  0.43358  1.0000
  C   C64       1.0  0.81822  0.12797  0.38808  1.0000
  N   N10       1.0  0.84209  0.10601  0.38361  1.0000
  H   H34       1.0  0.79309  0.11754  0.43491  1.0000
  C   C65       1.0  0.81682  0.68651  0.38730  1.0000
  N   N11       1.0  0.84090  0.73234  0.38347  1.0000
  C   C66       1.0  0.91080  0.87343  0.38548  1.0000
  H   H35       1.0  0.79165  0.67169  0.43401  1.0000
  N   N12       1.0  0.88877  0.82757  0.38253  1.0000
  H   H36       1.0  0.90069  0.88863  0.43181  1.0000
  C   C67       1.0  0.47919  0.16655  0.34977  1.0000
  C   C68       1.0  0.55507  0.15474  0.35417  1.0000
  C   C69       1.0  0.53615  0.15848  0.43641  1.0000
  C   C70       1.0  0.49802  0.16441  0.43274  1.0000
  H   H37       1.0  0.48615  0.17111  0.49044  1.0000
  C   C71       1.0  0.59649  0.15485  0.35383  1.0000
  C   C72       1.0  0.68433  0.16707  0.34805  1.0000
  C   C73       1.0  0.66359  0.16483  0.43131  1.0000
  C   C74       1.0  0.61944  0.15865  0.43571  1.0000
  C   C75       1.0  0.59921  0.15976  0.51785  1.0000
  C   C76       1.0  0.55780  0.15967  0.51820  1.0000
  H   H38       1.0  0.68235  0.17155  0.48876  1.0000
  O   O7        1.0  0.62079  0.16462  0.59738  1.0000
  H   H39       1.0  0.61160  0.13384  0.61789  1.0000
  O   O8        1.0  0.54127  0.16444  0.59805  1.0000
  H   H40       1.0  0.51990  0.13363  0.61875  1.0000
  C   C77       1.0  0.82510  0.30877  0.33270  1.0000
  C   C78       1.0  0.83692  0.39645  0.33321  1.0000
  C   C79       1.0  0.83952  0.37703  0.41570  1.0000
  C   C80       1.0  0.83350  0.33290  0.41399  1.0000
  H   H41       1.0  0.83121  0.31657  0.47306  1.0000
  C   C81       1.0  0.83664  0.43766  0.33265  1.0000
  C   C82       1.0  0.82379  0.51289  0.32994  1.0000
  C   C83       1.0  0.83247  0.49780  0.41178  1.0000
  C   C84       1.0  0.83899  0.46000  0.41458  1.0000
  C   C85       1.0  0.84419  0.44189  0.49621  1.0000
  C   C86       1.0  0.84445  0.40066  0.49677  1.0000
  H   H42       1.0  0.83011  0.51209  0.47046  1.0000
  O   O9        1.0  0.84537  0.46172  0.57617  1.0000
  H   H43       1.0  0.87735  0.48403  0.58714  1.0000
  O   O10       1.0  0.84586  0.38255  0.57723  1.0000
  H   H44       1.0  0.87792  0.39263  0.58840  1.0000
  C   C87       1.0  0.68271  0.51355  0.33888  1.0000
  C   C88       1.0  0.59518  0.43753  0.34350  1.0000
  C   C89       1.0  0.61668  0.45837  0.42557  1.0000
  C   C90       1.0  0.66069  0.49661  0.42181  1.0000
  H   H45       1.0  0.67853  0.50970  0.47993  1.0000
  C   C91       1.0  0.55406  0.39596  0.34404  1.0000
  C   C92       1.0  0.47896  0.30781  0.34167  1.0000
  C   C93       1.0  0.49618  0.33040  0.42404  1.0000
  C   C94       1.0  0.53390  0.37473  0.42669  1.0000
  C   C95       1.0  0.55403  0.39684  0.50831  1.0000
  C   C96       1.0  0.59519  0.43840  0.50776  1.0000
  H   H46       1.0  0.48345  0.31287  0.48261  1.0000
  O   O11       1.0  0.53630  0.37696  0.58874  1.0000
  H   H47       1.0  0.51422  0.38627  0.60491  1.0000
  O   O12       1.0  0.61532  0.45678  0.58766  1.0000
  H   H48       1.0  0.60538  0.47838  0.60381  1.0000
