data_image0
_chemical_formula_structural       C3NC3NC5NC5NC36H26C4H4C2NC2NHCH3NHC2NC2NHCH3NHC16H20C2HC6H3NHC2HC6H3NH
_chemical_formula_sum              "C98 N12 H70"
_cell_length_a       38.2246
_cell_length_b       38.2225
_cell_length_c       15.0089
_cell_angle_alpha    90
_cell_angle_beta     90
_cell_angle_gamma    90.0692

_space_group_name_H-M_alt    "P 1"
_space_group_IT_number       1

loop_
  _space_group_symop_operation_xyz
  'x, y, z'

loop_
  _atom_site_type_symbol
  _atom_site_label
  _atom_site_symmetry_multiplicity
  _atom_site_fract_x
  _atom_site_fract_y
  _atom_site_fract_z
  _atom_site_occupancy
  C   C1        1.0  0.07111  0.08821  0.32939  1.0000
  C   C2        1.0  0.09561  0.06172  0.32889  1.0000
  C   C3        1.0  0.07787  0.02973  0.32943  1.0000
  N   N1        1.0  0.04340  0.03800  0.33072  1.0000
  C   C4        1.0  0.03783  0.07301  0.33044  1.0000
  C   C5        1.0  0.00576  0.09183  0.33064  1.0000
  C   C6        1.0  0.97197  0.07643  0.33144  1.0000
  N   N2        1.0  0.96390  0.04201  0.33201  1.0000
  C   C7        1.0  0.92898  0.03665  0.33151  1.0000
  C   C8        1.0  0.91361  0.06979  0.33097  1.0000
  C   C9        1.0  0.94013  0.09432  0.33100  1.0000
  C   C10       1.0  0.91100  0.00415  0.33072  1.0000
  C   C11       1.0  0.92728  0.97071  0.33035  1.0000
  N   N3        1.0  0.96175  0.96245  0.33053  1.0000
  C   C12       1.0  0.96731  0.92744  0.32924  1.0000
  C   C13       1.0  0.93403  0.91224  0.32877  1.0000
  C   C14       1.0  0.90953  0.93873  0.32941  1.0000
  C   C15       1.0  0.99938  0.90861  0.32830  1.0000
  C   C16       1.0  0.03317  0.92400  0.32810  1.0000
  N   N4        1.0  0.04122  0.95842  0.32848  1.0000
  C   C17       1.0  0.07615  0.96379  0.32821  1.0000
  C   C18       1.0  0.09151  0.93064  0.32753  1.0000
  C   C19       1.0  0.06500  0.90610  0.32747  1.0000
  C   C20       1.0  0.09413  0.99629  0.32850  1.0000
  C   C21       1.0  0.13132  0.99511  0.32824  1.0000
  C   C22       1.0  0.20570  0.99026  0.32815  1.0000
  C   C23       1.0  0.18668  0.99173  0.24721  1.0000
  C   C24       1.0  0.14996  0.99403  0.24712  1.0000
  C   C25       1.0  0.24289  0.98689  0.32827  1.0000
  C   C26       1.0  0.26407  0.00719  0.27058  1.0000
  C   C27       1.0  0.30071  0.00372  0.27085  1.0000
  C   C28       1.0  0.31734  0.97996  0.32916  1.0000
  C   C29       1.0  0.99755  0.87143  0.32795  1.0000
  C   C30       1.0  0.99215  0.79708  0.32759  1.0000
  C   C31       1.0  0.99402  0.81611  0.24673  1.0000
  C   C32       1.0  0.99662  0.85283  0.24676  1.0000
  C   C33       1.0  0.98871  0.75988  0.32758  1.0000
  C   C34       1.0  0.98178  0.68541  0.32851  1.0000
  C   C35       1.0  0.00574  0.70208  0.27071  1.0000
  C   C36       1.0  0.00921  0.73873  0.27041  1.0000
  C   C37       1.0  0.87383  0.00528  0.32687  1.0000
  C   C38       1.0  0.85664  0.00500  0.24367  1.0000
  C   C39       1.0  0.81993  0.00652  0.23939  1.0000
  C   C40       1.0  0.79947  0.00851  0.31790  1.0000
  C   C41       1.0  0.76226  0.01067  0.31299  1.0000
  C   C42       1.0  0.68788  0.01633  0.29940  1.0000
  C   C43       1.0  0.70644  0.99143  0.24837  1.0000
  C   C44       1.0  0.74302  0.98862  0.25514  1.0000
  C   C45       1.0  0.00752  0.12898  0.32686  1.0000
  C   C46       1.0  0.00764  0.14620  0.24370  1.0000
  C   C47       1.0  0.01117  0.20333  0.31814  1.0000
  C   C48       1.0  0.00938  0.18290  0.23953  1.0000
  C   C49       1.0  0.01331  0.24055  0.31340  1.0000
  C   C50       1.0  0.99140  0.25975  0.25522  1.0000
  C   C51       1.0  0.99413  0.29636  0.24881  1.0000
  C   C52       1.0  0.01880  0.31499  0.30049  1.0000
  H   H1        1.0  0.97814  0.30932  0.20523  1.0000
  H   H2        1.0  0.97303  0.24726  0.21713  1.0000
  H   H3        1.0  0.01003  0.19453  0.17813  1.0000
  H   H4        1.0  0.00658  0.13214  0.18568  1.0000
  H   H5        1.0  0.07708  0.11429  0.32876  1.0000
  H   H6        1.0  0.12207  0.06565  0.32771  1.0000
  H   H7        1.0  0.02496  0.02094  0.33126  1.0000
  H   H8        1.0  0.98019  0.97951  0.33102  1.0000
  H   H9        1.0  0.93638  0.12079  0.33031  1.0000
  H   H10       1.0  0.88752  0.07559  0.33025  1.0000
  H   H11       1.0  0.87072  0.00391  0.18570  1.0000
  H   H12       1.0  0.80833  0.00696  0.17794  1.0000
  H   H13       1.0  0.88308  0.93479  0.32907  1.0000
  H   H14       1.0  0.92804  0.88617  0.32769  1.0000
  H   H15       1.0  0.11760  0.92483  0.32717  1.0000
  H   H16       1.0  0.06874  0.87963  0.32708  1.0000
  H   H17       1.0  0.99748  0.86589  0.18725  1.0000
  H   H18       1.0  0.99263  0.80347  0.18673  1.0000
  H   H19       1.0  0.02738  0.74979  0.22893  1.0000
  H   H20       1.0  0.02107  0.68756  0.22881  1.0000
  H   H21       1.0  0.13690  0.99446  0.18756  1.0000
  H   H22       1.0  0.19934  0.99010  0.18728  1.0000
  H   H23       1.0  0.31525  0.01887  0.22852  1.0000
  H   H24       1.0  0.25303  0.02517  0.22863  1.0000
  H   H25       1.0  0.75546  0.97009  0.21752  1.0000
  H   H26       1.0  0.69345  0.97534  0.20506  1.0000
  C   C53       1.0  0.97838  0.64665  0.32841  1.0000
  C   C54       1.0  0.35609  0.97654  0.32899  1.0000
  C   C55       1.0  0.02205  0.35359  0.29102  1.0000
  C   C56       1.0  0.64931  0.01967  0.28958  1.0000
  H   H27       1.0  0.96949  0.63887  0.26206  1.0000
  H   H28       1.0  0.36381  0.96742  0.26281  1.0000
  H   H29       1.0  0.64332  0.02405  0.21927  1.0000
  H   H30       1.0  0.02663  0.35968  0.22084  1.0000
  C   C57       1.0  0.99297  0.40898  0.32595  1.0000
  C   C58       1.0  0.99107  0.43070  0.24919  1.0000
  N   N5        1.0  0.99511  0.46579  0.25939  1.0000
  C   C59       1.0  0.00045  0.48199  0.33872  1.0000
  C   C60       1.0  0.00670  0.57375  0.26873  1.0000
  N   N6        1.0  0.00363  0.53844  0.26811  1.0000
  H   H31       1.0  0.00606  0.58690  0.20949  1.0000
  C   C61       1.0  0.98416  0.41858  0.15725  1.0000
  H   H32       1.0  0.97874  0.39066  0.15320  1.0000
  H   H33       1.0  0.00679  0.42435  0.11539  1.0000
  H   H34       1.0  0.96148  0.43238  0.13056  1.0000
  N   N7        1.0  0.99055  0.37203  0.32529  1.0000
  H   H35       1.0  0.96804  0.36447  0.29341  1.0000
  C   C62       1.0  0.59375  0.99086  0.32504  1.0000
  C   C63       1.0  0.57198  0.98890  0.24837  1.0000
  N   N8        1.0  0.53691  0.99302  0.25867  1.0000
  C   C64       1.0  0.52079  0.99853  0.33801  1.0000
  C   C65       1.0  0.42900  0.00473  0.26837  1.0000
  N   N9        1.0  0.46431  0.00163  0.26762  1.0000
  H   H36       1.0  0.41580  0.00399  0.20920  1.0000
  C   C66       1.0  0.58400  0.98179  0.15647  1.0000
  H   H37       1.0  0.61189  0.97627  0.15238  1.0000
  H   H38       1.0  0.57833  0.00436  0.11438  1.0000
  H   H39       1.0  0.57007  0.95910  0.13009  1.0000
  N   N10       1.0  0.63068  0.98831  0.32429  1.0000
  H   H40       1.0  0.63809  0.96571  0.29267  1.0000
  C   C67       1.0  0.14998  0.99406  0.40931  1.0000
  C   C68       1.0  0.18668  0.99166  0.40911  1.0000
  C   C69       1.0  0.29633  0.95949  0.38646  1.0000
  C   C70       1.0  0.25971  0.96289  0.38594  1.0000
  C   C71       1.0  0.99601  0.85276  0.40894  1.0000
  C   C72       1.0  0.99333  0.81607  0.40861  1.0000
  C   C73       1.0  0.96449  0.74303  0.38469  1.0000
  C   C74       1.0  0.96110  0.70640  0.38525  1.0000
  C   C75       1.0  0.81702  0.00880  0.40104  1.0000
  C   C76       1.0  0.85374  0.00711  0.40561  1.0000
  C   C77       1.0  0.74357  0.03549  0.36427  1.0000
  C   C78       1.0  0.70698  0.03834  0.35742  1.0000
  C   C79       1.0  0.00922  0.14903  0.40569  1.0000
  C   C80       1.0  0.01111  0.18575  0.40123  1.0000
  C   C81       1.0  0.04067  0.29593  0.35882  1.0000
  C   C82       1.0  0.03789  0.25932  0.36538  1.0000
  H   H41       1.0  0.05904  0.30854  0.39664  1.0000
  H   H42       1.0  0.05473  0.24639  0.40691  1.0000
  H   H43       1.0  0.01190  0.19959  0.45958  1.0000
  H   H44       1.0  0.00907  0.13705  0.46670  1.0000
  H   H45       1.0  0.86571  0.00733  0.46664  1.0000
  H   H46       1.0  0.80316  0.00977  0.45932  1.0000
  H   H47       1.0  0.99667  0.86574  0.46860  1.0000
  H   H48       1.0  0.99259  0.80331  0.46853  1.0000
  H   H49       1.0  0.94325  0.69520  0.42731  1.0000
  H   H50       1.0  0.94863  0.75733  0.42578  1.0000
  H   H51       1.0  0.24538  0.94715  0.42737  1.0000
  H   H52       1.0  0.30750  0.94178  0.42889  1.0000
  H   H53       1.0  0.19943  0.99118  0.46906  1.0000
  H   H54       1.0  0.13698  0.99477  0.46892  1.0000
  H   H55       1.0  0.75654  0.05242  0.40554  1.0000
  H   H56       1.0  0.69442  0.05687  0.39474  1.0000
  H   H57       1.0  0.95843  0.63811  0.37613  1.0000
  H   H58       1.0  0.36460  0.95673  0.37710  1.0000
  H   H59       1.0  0.63998  0.04265  0.32601  1.0000
  H   H60       1.0  0.04490  0.36300  0.32794  1.0000
  C   C83       1.0  0.00159  0.46156  0.41757  1.0000
  C   C84       1.0  0.99786  0.42496  0.40982  1.0000
  H   H61       1.0  0.99903  0.40964  0.46575  1.0000
  C   C85       1.0  0.00420  0.51866  0.34334  1.0000
  C   C86       1.0  0.01000  0.59202  0.34998  1.0000
  C   C87       1.0  0.01138  0.57214  0.42942  1.0000
  C   C88       1.0  0.00856  0.53531  0.42726  1.0000
  C   C89       1.0  0.00967  0.51482  0.50550  1.0000
  C   C90       1.0  0.00638  0.47821  0.50065  1.0000
  H   H62       1.0  0.01284  0.52638  0.56649  1.0000
  H   H63       1.0  0.00722  0.46388  0.55822  1.0000
  H   H64       1.0  0.01401  0.58471  0.48926  1.0000
  N   N11       1.0  0.01218  0.62915  0.34941  1.0000
  H   H65       1.0  0.02107  0.63825  0.40979  1.0000
  C   C91       1.0  0.54127  0.99977  0.41677  1.0000
  C   C92       1.0  0.57785  0.99594  0.40892  1.0000
  H   H66       1.0  0.59320  0.99716  0.46477  1.0000
  C   C93       1.0  0.48413  0.00233  0.34275  1.0000
  C   C94       1.0  0.41080  0.00820  0.34967  1.0000
  C   C95       1.0  0.43075  0.00971  0.42900  1.0000
  C   C96       1.0  0.46757  0.00685  0.42670  1.0000
  C   C97       1.0  0.48810  0.00807  0.50484  1.0000
  C   C98       1.0  0.52470  0.00473  0.49986  1.0000
  H   H67       1.0  0.47660  0.01136  0.56585  1.0000
  H   H68       1.0  0.53907  0.00562  0.55736  1.0000
  H   H69       1.0  0.41822  0.01245  0.48886  1.0000
  N   N12       1.0  0.37368  0.01039  0.34923  1.0000
  H   H70       1.0  0.36466  0.01948  0.40949  1.0000
