data_image0
_chemical_formula_structural       CNC2NC4NC18H14C2NC16H12C3NC2NC5NC4NC18H14CNC16H12C11H11CNCNC4NC16H13NCHNCHNCHNCHNCHNCHNCHNCHNCHNCHNCHNCHC7NC12H12C2NC3NC3NC18H14C12H12C3NC3NC3NC18H14C3NC3NC2NC5NC20H15C8NC14H13C2NCNH2C2NCNH2C2NCNH2C2NCNH2C2NCNH2C2NCNH2C2NCNH2C2NCNH2C2NCNH2C2NCNH2C2NCNH2C2NCNH2
_chemical_formula_sum              "C312 N60 H192"
_cell_length_a       56.8776
_cell_length_b       56.8775
_cell_length_c       14.9835
_cell_angle_alpha    90.0018
_cell_angle_beta     89.9652
_cell_angle_gamma    120

_space_group_name_H-M_alt    "P 1"
_space_group_IT_number       1

loop_
  _space_group_symop_operation_xyz
  'x, y, z'

loop_
  _atom_site_type_symbol
  _atom_site_label
  _atom_site_symmetry_multiplicity
  _atom_site_fract_x
  _atom_site_fract_y
  _atom_site_fract_z
  _atom_site_occupancy
  C   C1        1.0  0.28747  0.53096  0.32865  1.0000
  N   N1        1.0  0.27860  0.48883  0.33660  1.0000
  C   C2        1.0  0.30602  0.50410  0.33142  1.0000
  C   C3        1.0  0.32590  0.49590  0.33066  1.0000
  N   N2        1.0  0.29545  0.44584  0.33285  1.0000
  C   C4        1.0  0.29744  0.42315  0.33243  1.0000
  C   C5        1.0  0.32521  0.43197  0.33050  1.0000
  C   C6        1.0  0.33918  0.45998  0.33000  1.0000
  C   C7        1.0  0.27599  0.39574  0.33441  1.0000
  N   N3        1.0  0.23558  0.40255  0.33718  1.0000
  C   C8        1.0  0.20814  0.38726  0.34192  1.0000
  C   C9        1.0  0.22681  0.36044  0.34316  1.0000
  C   C10       1.0  0.21686  0.46842  0.34102  1.0000
  C   C11       1.0  0.23828  0.49581  0.33929  1.0000
  C   C12       1.0  0.23118  0.51657  0.34093  1.0000
  C   C13       1.0  0.22221  0.52352  0.26268  1.0000
  C   C14       1.0  0.21738  0.54548  0.26275  1.0000
  C   C15       1.0  0.22133  0.56103  0.34087  1.0000
  C   C16       1.0  0.14702  0.36072  0.26772  1.0000
  C   C17       1.0  0.11890  0.34229  0.26815  1.0000
  C   C18       1.0  0.28354  0.37534  0.33355  1.0000
  C   C19       1.0  0.30505  0.33945  0.33164  1.0000
  C   C20       1.0  0.29937  0.34876  0.25116  1.0000
  C   C21       1.0  0.28880  0.36645  0.25195  1.0000
  C   C22       1.0  0.35367  0.51670  0.32892  1.0000
  C   C23       1.0  0.36685  0.52780  0.24706  1.0000
  C   C24       1.0  0.39330  0.55036  0.24587  1.0000
  C   C25       1.0  0.40733  0.56248  0.32617  1.0000
  H   H1        1.0  0.40209  0.55792  0.18522  1.0000
  H   H2        1.0  0.35699  0.52005  0.18789  1.0000
  H   H3        1.0  0.28591  0.54807  0.32499  1.0000
  H   H4        1.0  0.26896  0.46942  0.34256  1.0000
  H   H5        1.0  0.24523  0.42198  0.33219  1.0000
  H   H6        1.0  0.35984  0.47185  0.32855  1.0000
  H   H7        1.0  0.33416  0.42024  0.32998  1.0000
  H   H8        1.0  0.28575  0.37344  0.19260  1.0000
  H   H9        1.0  0.30307  0.34294  0.19064  1.0000
  H   H10       1.0  0.22850  0.34338  0.34549  1.0000
  H   H11       1.0  0.15756  0.36429  0.20916  1.0000
  H   H12       1.0  0.10978  0.33275  0.20976  1.0000
  H   H13       1.0  0.21134  0.55031  0.20456  1.0000
  H   H14       1.0  0.21978  0.51306  0.20460  1.0000
  C   C26       1.0  0.53779  0.75682  0.32836  1.0000
  C   C27       1.0  0.56463  0.80222  0.33166  1.0000
  N   N4        1.0  0.62288  0.84992  0.33328  1.0000
  C   C28       1.0  0.64557  0.87460  0.33299  1.0000
  C   C29       1.0  0.63675  0.89354  0.33136  1.0000
  C   C30       1.0  0.60873  0.87950  0.33089  1.0000
  C   C31       1.0  0.67298  0.88056  0.33476  1.0000
  C   C32       1.0  0.68147  0.82119  0.34205  1.0000
  C   C33       1.0  0.70829  0.86669  0.34288  1.0000
  C   C34       1.0  0.60031  0.74876  0.34156  1.0000
  C   C35       1.0  0.54526  0.69898  0.26324  1.0000
  C   C36       1.0  0.52328  0.67219  0.26334  1.0000
  C   C37       1.0  0.70801  0.78658  0.26805  1.0000
  C   C38       1.0  0.72645  0.77690  0.26851  1.0000
  C   C39       1.0  0.69338  0.90851  0.33383  1.0000
  C   C40       1.0  0.71992  0.95090  0.25128  1.0000
  C   C41       1.0  0.70223  0.92264  0.25216  1.0000
  C   C42       1.0  0.54102  0.83943  0.24745  1.0000
  C   C43       1.0  0.51848  0.84334  0.24614  1.0000
  H   H15       1.0  0.51101  0.84467  0.18546  1.0000
  H   H16       1.0  0.54887  0.83742  0.18831  1.0000
  H   H17       1.0  0.52070  0.73815  0.32427  1.0000
  H   H18       1.0  0.59686  0.88830  0.32964  1.0000
  H   H19       1.0  0.64847  0.91423  0.33097  1.0000
  H   H20       1.0  0.69520  0.91258  0.19286  1.0000
  H   H21       1.0  0.72570  0.96040  0.19072  1.0000
  H   H22       1.0  0.72534  0.88544  0.34527  1.0000
  H   H23       1.0  0.70444  0.79352  0.20946  1.0000
  H   H24       1.0  0.73598  0.77728  0.21009  1.0000
  H   H25       1.0  0.51849  0.66130  0.20519  1.0000
  H   H26       1.0  0.55576  0.70698  0.20518  1.0000
  C   C44       1.0  0.28769  0.75702  0.32589  1.0000
  C   C45       1.0  0.31190  0.78127  0.32798  1.0000
  C   C46       1.0  0.30610  0.80236  0.33507  1.0000
  N   N5        1.0  0.27864  0.79012  0.33628  1.0000
  C   C47       1.0  0.26650  0.76270  0.33097  1.0000
  C   C48       1.0  0.23842  0.74282  0.33037  1.0000
  N   N6        1.0  0.21880  0.77326  0.33246  1.0000
  C   C49       1.0  0.19412  0.77127  0.33213  1.0000
  C   C50       1.0  0.17517  0.74350  0.33050  1.0000
  C   C51       1.0  0.18922  0.72953  0.33003  1.0000
  C   C52       1.0  0.18816  0.79272  0.33395  1.0000
  C   C53       1.0  0.20789  0.82083  0.33716  1.0000
  N   N7        1.0  0.23537  0.83314  0.33660  1.0000
  C   C54       1.0  0.24751  0.86057  0.34127  1.0000
  C   C55       1.0  0.22626  0.86620  0.34499  1.0000
  C   C56       1.0  0.20202  0.84189  0.34207  1.0000
  C   C57       1.0  0.27563  0.88044  0.34304  1.0000
  N   N8        1.0  0.29527  0.84990  0.34045  1.0000
  C   C58       1.0  0.31996  0.85186  0.34084  1.0000
  C   C59       1.0  0.32593  0.83044  0.33908  1.0000
  C   C60       1.0  0.35378  0.83753  0.34089  1.0000
  C   C61       1.0  0.36979  0.84658  0.26276  1.0000
  C   C62       1.0  0.39658  0.85139  0.26297  1.0000
  C   C63       1.0  0.40810  0.84737  0.34112  1.0000
  C   C64       1.0  0.28298  0.90838  0.34580  1.0000
  C   C65       1.0  0.28217  0.92175  0.26743  1.0000
  C   C66       1.0  0.29183  0.94986  0.26799  1.0000
  C   C67       1.0  0.30254  0.96540  0.34669  1.0000
  C   C68       1.0  0.16020  0.78516  0.33311  1.0000
  C   C69       1.0  0.10280  0.76362  0.33123  1.0000
  C   C70       1.0  0.11780  0.76926  0.25074  1.0000
  C   C71       1.0  0.14606  0.77984  0.25151  1.0000
  C   C72       1.0  0.23146  0.71505  0.32862  1.0000
  C   C73       1.0  0.22937  0.70189  0.24674  1.0000
  C   C74       1.0  0.22548  0.67545  0.24552  1.0000
  C   C75       1.0  0.22356  0.66139  0.32580  1.0000
  H   H27       1.0  0.22424  0.66666  0.18486  1.0000
  H   H28       1.0  0.23149  0.71177  0.18759  1.0000
  H   H29       1.0  0.33057  0.78284  0.32408  1.0000
  H   H30       1.0  0.26887  0.79975  0.34278  1.0000
  H   H31       1.0  0.24516  0.82348  0.33225  1.0000
  H   H32       1.0  0.18042  0.70886  0.32878  1.0000
  H   H33       1.0  0.15449  0.73454  0.33012  1.0000
  H   H34       1.0  0.15612  0.78287  0.19216  1.0000
  H   H35       1.0  0.10829  0.76551  0.19022  1.0000
  H   H36       1.0  0.18327  0.84020  0.34435  1.0000
  H   H37       1.0  0.27527  0.91125  0.20880  1.0000
  H   H38       1.0  0.29148  0.95902  0.20958  1.0000
  H   H39       1.0  0.40750  0.85750  0.20486  1.0000
  H   H40       1.0  0.36182  0.84907  0.20464  1.0000
  C   C76       1.0  0.78538  0.54190  0.33210  1.0000
  N   N9        1.0  0.79595  0.60016  0.33350  1.0000
  C   C77       1.0  0.79396  0.62285  0.33315  1.0000
  C   C78       1.0  0.76619  0.61403  0.33140  1.0000
  C   C79       1.0  0.75222  0.58602  0.33092  1.0000
  C   C80       1.0  0.81541  0.65026  0.33498  1.0000
  C   C81       1.0  0.88327  0.65875  0.34215  1.0000
  C   C82       1.0  0.86459  0.68557  0.34310  1.0000
  C   C83       1.0  0.87454  0.57758  0.34155  1.0000
  C   C84       1.0  0.86925  0.52252  0.26328  1.0000
  C   C85       1.0  0.87407  0.50054  0.26335  1.0000
  C   C86       1.0  0.94440  0.68526  0.26797  1.0000
  C   C87       1.0  0.97253  0.70368  0.26832  1.0000
  C   C88       1.0  0.80787  0.67066  0.33403  1.0000
  C   C89       1.0  0.79203  0.69721  0.25151  1.0000
  C   C90       1.0  0.80262  0.67954  0.25238  1.0000
  C   C91       1.0  0.72459  0.51822  0.24779  1.0000
  C   C92       1.0  0.69814  0.49567  0.24656  1.0000
  H   H41       1.0  0.68937  0.48813  0.18590  1.0000
  H   H42       1.0  0.73448  0.52599  0.18862  1.0000
  H   H43       1.0  0.80550  0.49794  0.32536  1.0000
  H   H44       1.0  0.73155  0.57415  0.32965  1.0000
  H   H45       1.0  0.75724  0.62576  0.33100  1.0000
  H   H46       1.0  0.80564  0.67249  0.19307  1.0000
  H   H47       1.0  0.78832  0.70299  0.19096  1.0000
  H   H48       1.0  0.86291  0.70262  0.34541  1.0000
  H   H49       1.0  0.93389  0.68164  0.20939  1.0000
  H   H50       1.0  0.98166  0.71317  0.20985  1.0000
  H   H51       1.0  0.88017  0.49575  0.20519  1.0000
  H   H52       1.0  0.87171  0.53299  0.20521  1.0000
  C   C93       1.0  0.44584  0.17141  0.33325  1.0000
  C   C94       1.0  0.45466  0.15246  0.33132  1.0000
  C   C95       1.0  0.48267  0.16650  0.33087  1.0000
  C   C96       1.0  0.54621  0.34702  0.26375  1.0000
  C   C97       1.0  0.56818  0.37381  0.26382  1.0000
  C   C98       1.0  0.38343  0.25941  0.26837  1.0000
  C   C99       1.0  0.36501  0.26911  0.26872  1.0000
  C   C100      1.0  0.37151  0.09514  0.25145  1.0000
  C   C101      1.0  0.38920  0.12341  0.25242  1.0000
  C   C102      1.0  0.55047  0.20666  0.24793  1.0000
  C   C103      1.0  0.57303  0.20277  0.24665  1.0000
  H   H53       1.0  0.58058  0.20154  0.18597  1.0000
  H   H54       1.0  0.54271  0.20877  0.18879  1.0000
  H   H55       1.0  0.57076  0.30786  0.32607  1.0000
  H   H56       1.0  0.49454  0.15770  0.32944  1.0000
  H   H57       1.0  0.39624  0.13350  0.19314  1.0000
  H   H58       1.0  0.36574  0.08567  0.19086  1.0000
  H   H59       1.0  0.36607  0.16057  0.34605  1.0000
  H   H60       1.0  0.38704  0.25247  0.20984  1.0000
  H   H61       1.0  0.35550  0.26871  0.21027  1.0000
  H   H62       1.0  0.57301  0.38469  0.20563  1.0000
  H   H63       1.0  0.53576  0.33900  0.20567  1.0000
  C   C104      1.0  0.77951  0.26473  0.32839  1.0000
  N   N10       1.0  0.81277  0.25588  0.33699  1.0000
  C   C105      1.0  0.82491  0.28330  0.33164  1.0000
  N   N11       1.0  0.87261  0.27275  0.33315  1.0000
  C   C106      1.0  0.89729  0.27474  0.33281  1.0000
  C   C107      1.0  0.91623  0.30251  0.33119  1.0000
  C   C108      1.0  0.90219  0.31648  0.33078  1.0000
  C   C109      1.0  0.90325  0.25329  0.33453  1.0000
  N   N12       1.0  0.85603  0.21287  0.33717  1.0000
  C   C110      1.0  0.84389  0.18543  0.34181  1.0000
  C   C111      1.0  0.88939  0.20411  0.34258  1.0000
  C   C112      1.0  0.77145  0.19415  0.34155  1.0000
  C   C113      1.0  0.76547  0.21556  0.33977  1.0000
  C   C114      1.0  0.72165  0.19942  0.26344  1.0000
  C   C115      1.0  0.69486  0.19461  0.26364  1.0000
  C   C116      1.0  0.68331  0.19864  0.34176  1.0000
  C   C117      1.0  0.80928  0.12429  0.26783  1.0000
  C   C118      1.0  0.79961  0.09618  0.26827  1.0000
  C   C119      1.0  0.93120  0.26085  0.33359  1.0000
  C   C120      1.0  0.98860  0.28237  0.33148  1.0000
  C   C121      1.0  0.97361  0.27669  0.25106  1.0000
  C   C122      1.0  0.94534  0.26612  0.25194  1.0000
  C   C123      1.0  0.85995  0.33095  0.32935  1.0000
  C   C124      1.0  0.86210  0.34414  0.24747  1.0000
  C   C125      1.0  0.86601  0.37059  0.24620  1.0000
  H   H64       1.0  0.86731  0.37940  0.18554  1.0000
  H   H65       1.0  0.86006  0.33428  0.18831  1.0000
  H   H66       1.0  0.76084  0.26316  0.32434  1.0000
  H   H67       1.0  0.82253  0.24626  0.34393  1.0000
  H   H68       1.0  0.91099  0.33715  0.32955  1.0000
  H   H69       1.0  0.93692  0.31147  0.33078  1.0000
  H   H70       1.0  0.93528  0.26308  0.19263  1.0000
  H   H71       1.0  0.98311  0.28040  0.19050  1.0000
  H   H72       1.0  0.90813  0.20580  0.34495  1.0000
  H   H73       1.0  0.81622  0.13482  0.20924  1.0000
  H   H74       1.0  0.80000  0.08705  0.20984  1.0000
  H   H75       1.0  0.68396  0.18852  0.20553  1.0000
  H   H76       1.0  0.72964  0.19694  0.20535  1.0000
  N   N13       1.0  0.23187  0.60233  0.26936  1.0000
  C   C126      1.0  0.23324  0.62666  0.25993  1.0000
  H   H77       1.0  0.24408  0.63881  0.20774  1.0000
  N   N14       1.0  0.46640  0.62986  0.26977  1.0000
  C   C127      1.0  0.44208  0.60690  0.26034  1.0000
  H   H78       1.0  0.42999  0.60556  0.20797  1.0000
  N   N15       1.0  0.43896  0.83695  0.26953  1.0000
  C   C128      1.0  0.46192  0.83558  0.26021  1.0000
  H   H79       1.0  0.46332  0.82488  0.20777  1.0000
  N   N16       1.0  0.85960  0.44369  0.26992  1.0000
  C   C129      1.0  0.85825  0.41937  0.26047  1.0000
  H   H80       1.0  0.84742  0.40722  0.20834  1.0000
  N   N17       1.0  0.62503  0.41617  0.27043  1.0000
  C   C130      1.0  0.64936  0.43914  0.26099  1.0000
  H   H81       1.0  0.66151  0.44044  0.20882  1.0000
  N   N18       1.0  0.65253  0.20916  0.27024  1.0000
  C   C131      1.0  0.62957  0.21053  0.26090  1.0000
  H   H82       1.0  0.62822  0.22127  0.20854  1.0000
  N   N19       1.0  0.06168  0.32599  0.27561  1.0000
  C   C132      1.0  0.03439  0.31363  0.26618  1.0000
  H   H83       1.0  0.02669  0.31921  0.21403  1.0000
  N   N20       1.0  0.74270  0.73596  0.27619  1.0000
  C   C133      1.0  0.75508  0.72104  0.26671  1.0000
  H   H84       1.0  0.74941  0.70765  0.21486  1.0000
  N   N21       1.0  0.33277  0.00706  0.27584  1.0000
  C   C134      1.0  0.34770  0.03436  0.26647  1.0000
  H   H85       1.0  0.36109  0.04209  0.21459  1.0000
  N   N22       1.0  0.02972  0.71993  0.27576  1.0000
  C   C135      1.0  0.05702  0.73228  0.26625  1.0000
  H   H86       1.0  0.06472  0.72666  0.21420  1.0000
  N   N23       1.0  0.34870  0.31001  0.27602  1.0000
  C   C136      1.0  0.33633  0.32494  0.26651  1.0000
  H   H87       1.0  0.34193  0.33823  0.21435  1.0000
  N   N24       1.0  0.75869  0.03898  0.27595  1.0000
  C   C137      1.0  0.74377  0.01168  0.26646  1.0000
  H   H88       1.0  0.73038  0.00398  0.21461  1.0000
  C   C138      1.0  0.31172  0.53099  0.32664  1.0000
  C   C139      1.0  0.26637  0.50407  0.33548  1.0000
  C   C140      1.0  0.32010  0.46858  0.33142  1.0000
  C   C141      1.0  0.24788  0.38736  0.33787  1.0000
  C   C142      1.0  0.20251  0.36038  0.34599  1.0000
  C   C143      1.0  0.18827  0.39551  0.34341  1.0000
  C   C144      1.0  0.19418  0.42293  0.34233  1.0000
  N   N25       1.0  0.21882  0.44569  0.34084  1.0000
  C   C145      1.0  0.18916  0.45970  0.34300  1.0000
  C   C146      1.0  0.17519  0.43169  0.34276  1.0000
  C   C147      1.0  0.23051  0.55404  0.41882  1.0000
  C   C148      1.0  0.23511  0.53194  0.41920  1.0000
  C   C149      1.0  0.16033  0.37493  0.34609  1.0000
  C   C150      1.0  0.10330  0.33750  0.34676  1.0000
  C   C151      1.0  0.11681  0.35184  0.42499  1.0000
  C   C152      1.0  0.14498  0.37004  0.42506  1.0000
  C   C153      1.0  0.28834  0.36562  0.41418  1.0000
  C   C154      1.0  0.29874  0.34777  0.41306  1.0000
  C   C155      1.0  0.36766  0.52809  0.40936  1.0000
  C   C156      1.0  0.39418  0.55051  0.40782  1.0000
  H   H89       1.0  0.40327  0.55880  0.46755  1.0000
  H   H90       1.0  0.35833  0.52067  0.46954  1.0000
  H   H91       1.0  0.33034  0.54812  0.32158  1.0000
  H   H92       1.0  0.28520  0.37220  0.47422  1.0000
  H   H93       1.0  0.30291  0.34199  0.47293  1.0000
  H   H94       1.0  0.18389  0.34325  0.35087  1.0000
  H   H95       1.0  0.18024  0.47146  0.34338  1.0000
  H   H96       1.0  0.15451  0.41997  0.34322  1.0000
  H   H97       1.0  0.15400  0.38065  0.48209  1.0000
  H   H98       1.0  0.10609  0.35004  0.48193  1.0000
  H   H99       1.0  0.24234  0.52779  0.47607  1.0000
  H   H100      1.0  0.23497  0.56564  0.47526  1.0000
  C   C157      1.0  0.53776  0.78103  0.32638  1.0000
  C   C158      1.0  0.56467  0.76262  0.33570  1.0000
  N   N26       1.0  0.57990  0.79008  0.33702  1.0000
  C   C159      1.0  0.57282  0.83030  0.33115  1.0000
  C   C160      1.0  0.60013  0.85182  0.33209  1.0000
  C   C161      1.0  0.68136  0.86083  0.33797  1.0000
  N   N27       1.0  0.66618  0.83334  0.33740  1.0000
  C   C162      1.0  0.70835  0.84245  0.34582  1.0000
  C   C163      1.0  0.67323  0.79308  0.34376  1.0000
  C   C164      1.0  0.64581  0.77157  0.34284  1.0000
  N   N28       1.0  0.62304  0.77344  0.34119  1.0000
  C   C165      1.0  0.60904  0.72977  0.34377  1.0000
  C   C166      1.0  0.63704  0.74381  0.34357  1.0000
  C   C167      1.0  0.57292  0.74278  0.33973  1.0000
  C   C168      1.0  0.55216  0.71493  0.34143  1.0000
  C   C169      1.0  0.50767  0.66061  0.34142  1.0000
  C   C170      1.0  0.51460  0.67683  0.41926  1.0000
  C   C171      1.0  0.53674  0.70351  0.41968  1.0000
  C   C172      1.0  0.69381  0.78572  0.34645  1.0000
  C   C173      1.0  0.73127  0.76616  0.34718  1.0000
  C   C174      1.0  0.71693  0.76537  0.42543  1.0000
  C   C175      1.0  0.69869  0.77529  0.42545  1.0000
  C   C176      1.0  0.70313  0.92306  0.41440  1.0000
  C   C177      1.0  0.72097  0.95131  0.41317  1.0000
  C   C178      1.0  0.72926  0.96591  0.33170  1.0000
  C   C179      1.0  0.55202  0.83726  0.32935  1.0000
  C   C180      1.0  0.54052  0.83976  0.40973  1.0000
  C   C181      1.0  0.50625  0.84516  0.32637  1.0000
  C   C182      1.0  0.51810  0.84387  0.40810  1.0000
  H   H101      1.0  0.50974  0.84462  0.46778  1.0000
  H   H102      1.0  0.54785  0.83778  0.46994  1.0000
  H   H103      1.0  0.52064  0.78252  0.32085  1.0000
  H   H104      1.0  0.59928  0.79984  0.34396  1.0000
  H   H105      1.0  0.64674  0.82355  0.33291  1.0000
  H   H106      1.0  0.69659  0.91334  0.47447  1.0000
  H   H107      1.0  0.72682  0.96127  0.47299  1.0000
  H   H108      1.0  0.72548  0.84096  0.35061  1.0000
  H   H109      1.0  0.59727  0.70909  0.34444  1.0000
  H   H110      1.0  0.64877  0.73486  0.34419  1.0000
  H   H111      1.0  0.68810  0.77374  0.48251  1.0000
  H   H112      1.0  0.71870  0.75644  0.48236  1.0000
  H   H113      1.0  0.54083  0.71493  0.47644  1.0000
  H   H114      1.0  0.50297  0.66972  0.47567  1.0000
  C   C183      1.0  0.21690  0.74862  0.33125  1.0000
  C   C184      1.0  0.29714  0.87453  0.34211  1.0000
  C   C185      1.0  0.33894  0.87956  0.34306  1.0000
  C   C186      1.0  0.32489  0.89352  0.34290  1.0000
  C   C187      1.0  0.39184  0.83810  0.41892  1.0000
  C   C188      1.0  0.36515  0.83353  0.41920  1.0000
  C   C189      1.0  0.30332  0.95184  0.42488  1.0000
  C   C190      1.0  0.29335  0.92367  0.42487  1.0000
  C   C191      1.0  0.14565  0.78037  0.41373  1.0000
  C   C192      1.0  0.11741  0.76998  0.41263  1.0000
  C   C193      1.0  0.22885  0.70104  0.40904  1.0000
  C   C194      1.0  0.22477  0.67453  0.40748  1.0000
  H   H115      1.0  0.22391  0.66539  0.46719  1.0000
  H   H116      1.0  0.23076  0.71036  0.46924  1.0000
  H   H117      1.0  0.28620  0.73841  0.32063  1.0000
  H   H118      1.0  0.15538  0.78358  0.47376  1.0000
  H   H119      1.0  0.10744  0.76583  0.47250  1.0000
  H   H120      1.0  0.22775  0.88482  0.34974  1.0000
  H   H121      1.0  0.35962  0.88848  0.34384  1.0000
  H   H122      1.0  0.33385  0.91420  0.34358  1.0000
  H   H123      1.0  0.29492  0.91462  0.48187  1.0000
  H   H124      1.0  0.31220  0.96253  0.48186  1.0000
  H   H125      1.0  0.35371  0.82625  0.47596  1.0000
  H   H126      1.0  0.39893  0.83361  0.47541  1.0000
  C   C195      1.0  0.77969  0.51501  0.32723  1.0000
  C   C196      1.0  0.80393  0.51505  0.32919  1.0000
  C   C197      1.0  0.82503  0.54194  0.33605  1.0000
  N   N29       1.0  0.81280  0.55717  0.33728  1.0000
  C   C198      1.0  0.76550  0.55010  0.33141  1.0000
  C   C199      1.0  0.77130  0.57742  0.33221  1.0000
  C   C200      1.0  0.84352  0.65864  0.33818  1.0000
  N   N30       1.0  0.85583  0.64346  0.33757  1.0000
  C   C201      1.0  0.88889  0.68563  0.34593  1.0000
  C   C202      1.0  0.90313  0.65049  0.34381  1.0000
  C   C203      1.0  0.89722  0.62308  0.34283  1.0000
  N   N31       1.0  0.87258  0.60031  0.34127  1.0000
  C   C204      1.0  0.90224  0.58630  0.34361  1.0000
  C   C205      1.0  0.91621  0.61431  0.34343  1.0000
  C   C206      1.0  0.85312  0.55019  0.33986  1.0000
  C   C207      1.0  0.86021  0.52943  0.34150  1.0000
  C   C208      1.0  0.87007  0.48497  0.34146  1.0000
  C   C209      1.0  0.86082  0.49192  0.41936  1.0000
  C   C210      1.0  0.85625  0.51404  0.41978  1.0000
  C   C211      1.0  0.93107  0.67108  0.34642  1.0000
  C   C212      1.0  0.98810  0.70851  0.34693  1.0000
  C   C213      1.0  0.97457  0.69418  0.42522  1.0000
  C   C214      1.0  0.94640  0.67599  0.42537  1.0000
  C   C215      1.0  0.80306  0.68042  0.41461  1.0000
  C   C216      1.0  0.79267  0.69827  0.41340  1.0000
  C   C217      1.0  0.78635  0.70655  0.33195  1.0000
  C   C218      1.0  0.73773  0.52930  0.32966  1.0000
  C   C219      1.0  0.72370  0.51790  0.41008  1.0000
  C   C220      1.0  0.68407  0.48353  0.32684  1.0000
  C   C221      1.0  0.69719  0.49546  0.40852  1.0000
  H   H127      1.0  0.68805  0.48718  0.46823  1.0000
  H   H128      1.0  0.73301  0.52529  0.47028  1.0000
  H   H129      1.0  0.76107  0.49789  0.32205  1.0000
  H   H130      1.0  0.82244  0.57657  0.34336  1.0000
  H   H131      1.0  0.84617  0.62401  0.33318  1.0000
  H   H132      1.0  0.80619  0.67385  0.47468  1.0000
  H   H133      1.0  0.78848  0.70407  0.47323  1.0000
  H   H134      1.0  0.90752  0.70275  0.35066  1.0000
  H   H135      1.0  0.91116  0.57454  0.34430  1.0000
  H   H136      1.0  0.93689  0.62603  0.34405  1.0000
  H   H137      1.0  0.93737  0.66540  0.48246  1.0000
  H   H138      1.0  0.98528  0.69600  0.48216  1.0000
  H   H139      1.0  0.84897  0.51817  0.47661  1.0000
  H   H140      1.0  0.85635  0.48033  0.47582  1.0000
  C   C222      1.0  0.55368  0.26497  0.32769  1.0000
  C   C223      1.0  0.55364  0.28918  0.32972  1.0000
  C   C224      1.0  0.52675  0.28339  0.33655  1.0000
  N   N32       1.0  0.51152  0.25593  0.33765  1.0000
  C   C225      1.0  0.52679  0.24378  0.33245  1.0000
  C   C226      1.0  0.51859  0.21570  0.33164  1.0000
  C   C227      1.0  0.49127  0.19418  0.33235  1.0000
  N   N33       1.0  0.46853  0.19608  0.33375  1.0000
  C   C228      1.0  0.41843  0.16545  0.33515  1.0000
  C   C229      1.0  0.41005  0.18518  0.33862  1.0000
  N   N34       1.0  0.42523  0.21266  0.33803  1.0000
  C   C230      1.0  0.40994  0.22481  0.34270  1.0000
  C   C231      1.0  0.38306  0.20356  0.34665  1.0000
  C   C232      1.0  0.38312  0.17932  0.34381  1.0000
  C   C233      1.0  0.41819  0.25292  0.34423  1.0000
  C   C234      1.0  0.44561  0.27443  0.34324  1.0000
  N   N35       1.0  0.46837  0.27256  0.34181  1.0000
  C   C235      1.0  0.49110  0.29725  0.34204  1.0000
  C   C236      1.0  0.48238  0.31623  0.34402  1.0000
  C   C237      1.0  0.45437  0.30219  0.34370  1.0000
  C   C238      1.0  0.51850  0.30322  0.34036  1.0000
  C   C239      1.0  0.53925  0.33108  0.34200  1.0000
  C   C240      1.0  0.58372  0.38540  0.34194  1.0000
  C   C241      1.0  0.57672  0.36922  0.41990  1.0000
  C   C242      1.0  0.55461  0.34251  0.42028  1.0000
  C   C243      1.0  0.39761  0.26028  0.34681  1.0000
  C   C244      1.0  0.36018  0.27988  0.34729  1.0000
  C   C245      1.0  0.37449  0.28070  0.42558  1.0000
  C   C246      1.0  0.39269  0.27073  0.42574  1.0000
  C   C247      1.0  0.39802  0.13750  0.33411  1.0000
  C   C248      1.0  0.38824  0.12291  0.41464  1.0000
  C   C249      1.0  0.37040  0.09466  0.41334  1.0000
  C   C250      1.0  0.36213  0.08010  0.33183  1.0000
  C   C251      1.0  0.53939  0.20873  0.32983  1.0000
  C   C252      1.0  0.55079  0.20612  0.41022  1.0000
  C   C253      1.0  0.58517  0.20085  0.32690  1.0000
  C   C254      1.0  0.57321  0.20202  0.40860  1.0000
  H   H141      1.0  0.58152  0.20122  0.46830  1.0000
  H   H142      1.0  0.54339  0.20803  0.47043  1.0000
  H   H143      1.0  0.57081  0.26348  0.32261  1.0000
  H   H144      1.0  0.49211  0.24616  0.34362  1.0000
  H   H145      1.0  0.44467  0.22245  0.33311  1.0000
  H   H146      1.0  0.44293  0.13177  0.33074  1.0000
  H   H147      1.0  0.39479  0.13259  0.47474  1.0000
  H   H148      1.0  0.36457  0.08466  0.47314  1.0000
  H   H149      1.0  0.36593  0.20506  0.35147  1.0000
  H   H150      1.0  0.49414  0.33691  0.34442  1.0000
  H   H151      1.0  0.44265  0.31115  0.34413  1.0000
  H   H152      1.0  0.40327  0.27230  0.48282  1.0000
  H   H153      1.0  0.37266  0.28960  0.48250  1.0000
  H   H154      1.0  0.55045  0.33112  0.47715  1.0000
  H   H155      1.0  0.58830  0.37633  0.47633  1.0000
  C   C255      1.0  0.80372  0.28898  0.32639  1.0000
  C   C256      1.0  0.78531  0.24365  0.33570  1.0000
  C   C257      1.0  0.85299  0.30319  0.33112  1.0000
  C   C258      1.0  0.87451  0.29739  0.33199  1.0000
  C   C259      1.0  0.88352  0.22518  0.33772  1.0000
  C   C260      1.0  0.86515  0.17981  0.34553  1.0000
  C   C261      1.0  0.81578  0.16556  0.34357  1.0000
  C   C262      1.0  0.79427  0.17147  0.34272  1.0000
  N   N36       1.0  0.79614  0.19611  0.34110  1.0000
  C   C263      1.0  0.75247  0.16644  0.34378  1.0000
  C   C264      1.0  0.76651  0.15248  0.34351  1.0000
  C   C265      1.0  0.73762  0.20847  0.34157  1.0000
  C   C266      1.0  0.69954  0.20792  0.41955  1.0000
  C   C267      1.0  0.72622  0.21247  0.41986  1.0000
  C   C268      1.0  0.80843  0.13762  0.34623  1.0000
  C   C269      1.0  0.78888  0.08060  0.34694  1.0000
  C   C270      1.0  0.78807  0.09412  0.42521  1.0000
  C   C271      1.0  0.79799  0.12228  0.42523  1.0000
  C   C272      1.0  0.94575  0.26565  0.41417  1.0000
  C   C273      1.0  0.97399  0.27607  0.41295  1.0000
  C   C274      1.0  0.86248  0.34494  0.40975  1.0000
  C   C275      1.0  0.86786  0.38462  0.32647  1.0000
  C   C276      1.0  0.86659  0.37147  0.40816  1.0000
  H   H156      1.0  0.86736  0.38057  0.46787  1.0000
  H   H157      1.0  0.86051  0.33561  0.46996  1.0000
  H   H158      1.0  0.80521  0.30759  0.32089  1.0000
  H   H159      1.0  0.84625  0.22253  0.33271  1.0000
  H   H160      1.0  0.93602  0.26247  0.47424  1.0000
  H   H161      1.0  0.98395  0.28019  0.47278  1.0000
  H   H162      1.0  0.86365  0.16119  0.35031  1.0000
  H   H163      1.0  0.73179  0.15752  0.34451  1.0000
  H   H164      1.0  0.75756  0.13180  0.34413  1.0000
  H   H165      1.0  0.79644  0.13131  0.48232  1.0000
  H   H166      1.0  0.77915  0.08341  0.48214  1.0000
  H   H167      1.0  0.73765  0.21979  0.47658  1.0000
  H   H168      1.0  0.69244  0.21244  0.47598  1.0000
  C   C277      1.0  0.21906  0.58481  0.33788  1.0000
  C   C278      1.0  0.22149  0.63532  0.32586  1.0000
  N   N37       1.0  0.20866  0.61769  0.39414  1.0000
  C   C279      1.0  0.20647  0.59286  0.40368  1.0000
  N   N38       1.0  0.19182  0.57745  0.47378  1.0000
  H   H169      1.0  0.18754  0.55875  0.48050  1.0000
  H   H170      1.0  0.18315  0.58406  0.51484  1.0000
  C   C280      1.0  0.48386  0.63460  0.33845  1.0000
  C   C281      1.0  0.43338  0.58649  0.32627  1.0000
  N   N39       1.0  0.45098  0.59132  0.39465  1.0000
  C   C282      1.0  0.47579  0.61396  0.40426  1.0000
  N   N40       1.0  0.49115  0.61473  0.47448  1.0000
  H   H171      1.0  0.50987  0.62913  0.48099  1.0000
  H   H172      1.0  0.48456  0.59942  0.51534  1.0000
  C   C283      1.0  0.43414  0.84961  0.33825  1.0000
  C   C284      1.0  0.48226  0.84724  0.32633  1.0000
  N   N41       1.0  0.47735  0.85993  0.39479  1.0000
  C   C285      1.0  0.45469  0.86209  0.40430  1.0000
  N   N42       1.0  0.45383  0.87661  0.47463  1.0000
  H   H173      1.0  0.43956  0.88112  0.48058  1.0000
  H   H174      1.0  0.46920  0.88545  0.51519  1.0000
  C   C286      1.0  0.87235  0.46120  0.33848  1.0000
  C   C287      1.0  0.86995  0.41069  0.32647  1.0000
  N   N43       1.0  0.88272  0.42831  0.39480  1.0000
  C   C288      1.0  0.88489  0.45313  0.40434  1.0000
  N   N44       1.0  0.89951  0.46853  0.47445  1.0000
  H   H175      1.0  0.90378  0.48722  0.48115  1.0000
  H   H176      1.0  0.90815  0.46191  0.51554  1.0000
  C   C289      1.0  0.60750  0.41144  0.33895  1.0000
  C   C290      1.0  0.65801  0.45954  0.32691  1.0000
  N   N45       1.0  0.64036  0.45471  0.39518  1.0000
  C   C291      1.0  0.61554  0.43207  0.40473  1.0000
  N   N46       1.0  0.60012  0.43131  0.47482  1.0000
  H   H177      1.0  0.58142  0.41688  0.48153  1.0000
  H   H178      1.0  0.60672  0.44657  0.51586  1.0000
  C   C292      1.0  0.65729  0.19643  0.33889  1.0000
  C   C293      1.0  0.60918  0.19881  0.32691  1.0000
  N   N47       1.0  0.61402  0.18604  0.39526  1.0000
  C   C294      1.0  0.63667  0.18387  0.40479  1.0000
  N   N48       1.0  0.63746  0.16928  0.47500  1.0000
  H   H179      1.0  0.65185  0.16495  0.48145  1.0000
  H   H180      1.0  0.62216  0.16055  0.51592  1.0000
  C   C295      1.0  0.07450  0.32122  0.34392  1.0000
  C   C296      1.0  0.01752  0.29497  0.33178  1.0000
  N   N49       1.0  0.03044  0.29022  0.39991  1.0000
  C   C297      1.0  0.05785  0.30196  0.40946  1.0000
  N   N50       1.0  0.06712  0.29378  0.47929  1.0000
  H   H181      1.0  0.08618  0.29929  0.48506  1.0000
  H   H182      1.0  0.05441  0.27967  0.51942  1.0000
  C   C298      1.0  0.74753  0.75362  0.34435  1.0000
  C   C299      1.0  0.77375  0.72286  0.33225  1.0000
  N   N51       1.0  0.77856  0.74060  0.40020  1.0000
  C   C300      1.0  0.76683  0.75629  0.40972  1.0000
  N   N52       1.0  0.77510  0.77383  0.47930  1.0000
  H   H183      1.0  0.76936  0.78719  0.48581  1.0000
  H   H184      1.0  0.78900  0.77506  0.52001  1.0000
  C   C301      1.0  0.31508  0.99421  0.34395  1.0000
  C   C302      1.0  0.34582  0.05118  0.33204  1.0000
  N   N53       1.0  0.32805  0.03823  0.39995  1.0000
  C   C303      1.0  0.31236  0.01081  0.40936  1.0000
  N   N54       1.0  0.29480  0.00152  0.47893  1.0000
  H   H185      1.0  0.28145  0.98241  0.48539  1.0000
  H   H186      1.0  0.29354  0.01416  0.51969  1.0000
  C   C304      1.0  0.01691  0.72477  0.34397  1.0000
  C   C305      1.0  0.07388  0.75100  0.33166  1.0000
  N   N55       1.0  0.06096  0.75582  0.39966  1.0000
  C   C306      1.0  0.03355  0.74409  0.40928  1.0000
  N   N56       1.0  0.02429  0.75235  0.47895  1.0000
  H   H187      1.0  0.00520  0.74668  0.48525  1.0000
  H   H188      1.0  0.03697  0.76634  0.51942  1.0000
  C   C307      1.0  0.34390  0.29241  0.34436  1.0000
  C   C308      1.0  0.31765  0.32313  0.33205  1.0000
  N   N57       1.0  0.31288  0.30546  0.40018  1.0000
  C   C309      1.0  0.32462  0.28979  0.40982  1.0000
  N   N58       1.0  0.31641  0.27233  0.47965  1.0000
  H   H189      1.0  0.32191  0.25877  0.48546  1.0000
  H   H190      1.0  0.30229  0.27092  0.51972  1.0000
  C   C310      1.0  0.77634  0.05179  0.34410  1.0000
  C   C311      1.0  0.74560  0.99482  0.33199  1.0000
  N   N59       1.0  0.76332  0.00774  0.39995  1.0000
  C   C312      1.0  0.77900  0.03515  0.40947  1.0000
  N   N60       1.0  0.79653  0.04441  0.47905  1.0000
  H   H191      1.0  0.80989  0.06351  0.48556  1.0000
  H   H192      1.0  0.79777  0.03173  0.51976  1.0000
