data_image0
_chemical_formula_structural       C4NC2NHCHC4NC2NHCHC2H4C2H4C2H4C2H4C4NC2NHCHC4NC2NHCHC4NC2NHCHC4NC2NHCHC2H4C2H4C2H4C2H4C4NC2NHCHC4NC2NHCHC4NC2NHCHC4NC2NHCHC6H3C6H3C6H3C6H3C6H3C6H3C6H3C6H3C6H3C6H3C6H3C6H3C2H4C2H4C4NC2NHCHC4NC2NHCHC4NC2NHCHC4NC2NHCHC2H4C2H4C2H4C2H4C4NC2NHCHC4NC2NHCHC4NC2NHCHC4NC2NHCHC2H4C2H4C2H4C2H4
_chemical_formula_sum              "C234 N36 H144"
_cell_length_a       34.467
_cell_length_b       34.309
_cell_length_c       14.8886
_cell_angle_alpha    90
_cell_angle_beta     90
_cell_angle_gamma    90.2678

_space_group_name_H-M_alt    "P 1"
_space_group_IT_number       1

loop_
  _space_group_symop_operation_xyz
  'x, y, z'

loop_
  _atom_site_type_symbol
  _atom_site_label
  _atom_site_symmetry_multiplicity
  _atom_site_fract_x
  _atom_site_fract_y
  _atom_site_fract_z
  _atom_site_occupancy
  C   C1        1.0  0.03150  0.47334  0.33733  1.0000
  C   C2        1.0  0.00950  0.48131  0.25904  1.0000
  C   C3        1.0  0.98018  0.51046  0.25986  1.0000
  C   C4        1.0  0.97224  0.53194  0.33896  1.0000
  N   N1        1.0  0.96100  0.51779  0.18179  1.0000
  C   C5        1.0  0.96801  0.49886  0.10335  1.0000
  C   C6        1.0  0.99686  0.46988  0.10319  1.0000
  N   N2        1.0  0.01638  0.46237  0.18031  1.0000
  H   H1        1.0  0.00355  0.45480  0.04613  1.0000
  C   C7        1.0  0.94634  0.50919  0.02143  1.0000
  H   H2        1.0  0.92540  0.53226  0.03485  1.0000
  C   C8        1.0  0.53075  0.03053  0.33733  1.0000
  C   C9        1.0  0.52278  0.00828  0.25918  1.0000
  C   C10       1.0  0.49312  0.97921  0.25963  1.0000
  C   C11       1.0  0.47107  0.97185  0.33817  1.0000
  N   N3        1.0  0.48587  0.95975  0.18170  1.0000
  C   C12       1.0  0.50533  0.96625  0.10373  1.0000
  C   C13       1.0  0.53479  0.99487  0.10395  1.0000
  N   N4        1.0  0.54223  0.01468  0.18091  1.0000
  H   H3        1.0  0.55027  0.00121  0.04723  1.0000
  C   C14       1.0  0.49508  0.94429  0.02192  1.0000
  H   H4        1.0  0.47156  0.92360  0.03499  1.0000
  C   C15       1.0  0.05412  0.31607  0.25818  1.0000
  C   C16       1.0  0.04556  0.27583  0.25630  1.0000
  H   H5        1.0  0.03598  0.26365  0.19753  1.0000
  H   H6        1.0  0.05057  0.33203  0.20075  1.0000
  H   H7        1.0  0.12595  0.31485  0.01427  1.0000
  H   H8        1.0  0.07604  0.32125  0.04035  1.0000
  C   C17       1.0  0.94707  0.68870  0.26286  1.0000
  C   C18       1.0  0.95559  0.72892  0.26038  1.0000
  H   H9        1.0  0.96433  0.74114  0.20095  1.0000
  H   H10       1.0  0.94991  0.67272  0.20529  1.0000
  H   H11       1.0  0.88192  0.68945  0.02482  1.0000
  H   H12       1.0  0.93229  0.68323  0.04600  1.0000
  C   C19       1.0  0.68781  0.05481  0.25838  1.0000
  C   C20       1.0  0.72784  0.04643  0.25696  1.0000
  H   H13       1.0  0.74015  0.03732  0.19804  1.0000
  H   H14       1.0  0.67210  0.05156  0.20057  1.0000
  H   H15       1.0  0.68759  0.12320  0.01783  1.0000
  H   H16       1.0  0.68077  0.07277  0.04086  1.0000
  C   C21       1.0  0.31492  0.94852  0.26278  1.0000
  C   C22       1.0  0.27507  0.95764  0.26043  1.0000
  H   H17       1.0  0.26327  0.96734  0.20146  1.0000
  H   H18       1.0  0.33100  0.95192  0.20552  1.0000
  H   H19       1.0  0.31146  0.87665  0.01889  1.0000
  H   H20       1.0  0.31839  0.92675  0.04524  1.0000
  C   C23       1.0  0.45192  0.75129  0.34461  1.0000
  C   C24       1.0  0.43889  0.76923  0.26444  1.0000
  C   C25       1.0  0.42995  0.80971  0.26261  1.0000
  C   C26       1.0  0.43348  0.83279  0.34110  1.0000
  N   N5        1.0  0.41912  0.82557  0.18273  1.0000
  C   C27       1.0  0.41595  0.80496  0.10510  1.0000
  C   C28       1.0  0.42410  0.76479  0.10780  1.0000
  N   N6        1.0  0.43539  0.74867  0.18661  1.0000
  H   H21       1.0  0.42244  0.74787  0.05143  1.0000
  C   C29       1.0  0.40546  0.82472  0.02083  1.0000
  H   H22       1.0  0.40251  0.85599  0.03153  1.0000
  C   C30       1.0  0.55108  0.25111  0.34720  1.0000
  C   C31       1.0  0.56370  0.23310  0.26678  1.0000
  C   C32       1.0  0.57234  0.19257  0.26487  1.0000
  C   C33       1.0  0.56877  0.16950  0.34338  1.0000
  N   N7        1.0  0.58291  0.17663  0.18487  1.0000
  C   C34       1.0  0.58604  0.19719  0.10717  1.0000
  C   C35       1.0  0.57806  0.23739  0.10988  1.0000
  N   N8        1.0  0.56710  0.25361  0.18885  1.0000
  H   H23       1.0  0.57969  0.25428  0.05346  1.0000
  C   C36       1.0  0.59637  0.17735  0.02289  1.0000
  H   H24       1.0  0.59962  0.14611  0.03383  1.0000
  C   C37       1.0  0.75182  0.55156  0.34349  1.0000
  C   C38       1.0  0.77011  0.56434  0.26344  1.0000
  C   C39       1.0  0.81065  0.57258  0.26184  1.0000
  C   C40       1.0  0.83350  0.56843  0.34033  1.0000
  N   N9        1.0  0.82678  0.58340  0.18217  1.0000
  C   C41       1.0  0.80643  0.58711  0.10448  1.0000
  C   C42       1.0  0.76624  0.57952  0.10689  1.0000
  N   N10       1.0  0.74982  0.56834  0.18553  1.0000
  H   H25       1.0  0.74950  0.58161  0.05047  1.0000
  C   C43       1.0  0.82642  0.59764  0.02048  1.0000
  H   H26       1.0  0.85759  0.60035  0.03144  1.0000
  C   C44       1.0  0.25162  0.45115  0.34875  1.0000
  C   C45       1.0  0.23347  0.43907  0.26798  1.0000
  C   C46       1.0  0.19286  0.43130  0.26551  1.0000
  C   C47       1.0  0.16983  0.43527  0.34375  1.0000
  N   N11       1.0  0.17686  0.42119  0.18520  1.0000
  C   C48       1.0  0.19739  0.41774  0.10773  1.0000
  C   C49       1.0  0.23766  0.42481  0.11101  1.0000
  N   N12       1.0  0.25395  0.43533  0.19027  1.0000
  H   H27       1.0  0.25453  0.42296  0.05476  1.0000
  C   C50       1.0  0.17751  0.40807  0.02307  1.0000
  H   H28       1.0  0.14628  0.40565  0.03351  1.0000
  C   C51       1.0  0.13884  0.06996  0.26725  1.0000
  C   C52       1.0  0.11566  0.10372  0.26729  1.0000
  H   H29       1.0  0.11116  0.11795  0.20776  1.0000
  H   H30       1.0  0.15051  0.06073  0.20776  1.0000
  H   H31       1.0  0.08412  0.01264  0.01538  1.0000
  H   H32       1.0  0.12459  0.04152  0.04857  1.0000
  C   C53       1.0  0.86349  0.93438  0.27009  1.0000
  C   C54       1.0  0.88661  0.90059  0.27041  1.0000
  H   H33       1.0  0.89073  0.88602  0.21117  1.0000
  H   H34       1.0  0.85155  0.94332  0.21066  1.0000
  H   H35       1.0  0.92041  0.99368  0.01521  1.0000
  H   H36       1.0  0.88023  0.96485  0.05049  1.0000
  C   C55       1.0  0.93397  0.13886  0.26621  1.0000
  C   C56       1.0  0.89977  0.11617  0.26719  1.0000
  H   H37       1.0  0.88551  0.11142  0.20782  1.0000
  H   H38       1.0  0.94341  0.15006  0.20634  1.0000
  H   H39       1.0  0.98936  0.08606  0.01689  1.0000
  H   H40       1.0  0.96212  0.12782  0.04782  1.0000
  C   C57       1.0  0.06821  0.86569  0.26745  1.0000
  C   C58       1.0  0.10230  0.88854  0.26752  1.0000
  H   H41       1.0  0.11636  0.89319  0.20785  1.0000
  H   H42       1.0  0.05860  0.85432  0.20789  1.0000
  H   H43       1.0  0.01406  0.91918  0.01852  1.0000
  H   H44       1.0  0.04167  0.87767  0.04943  1.0000
  C   C59       1.0  0.40792  0.61389  0.33545  1.0000
  C   C60       1.0  0.40281  0.59149  0.25633  1.0000
  C   C61       1.0  0.37958  0.55714  0.25761  1.0000
  C   C62       1.0  0.36121  0.54472  0.33787  1.0000
  N   N13       1.0  0.37677  0.53600  0.18042  1.0000
  C   C63       1.0  0.39453  0.54594  0.10219  1.0000
  C   C64       1.0  0.41749  0.58001  0.10147  1.0000
  N   N14       1.0  0.42087  0.60117  0.17800  1.0000
  H   H45       1.0  0.43156  0.58894  0.04466  1.0000
  C   C65       1.0  0.38958  0.52158  0.02142  1.0000
  H   H46       1.0  0.37057  0.49672  0.03497  1.0000
  C   C66       1.0  0.59542  0.38839  0.33483  1.0000
  C   C67       1.0  0.60007  0.41049  0.25511  1.0000
  C   C68       1.0  0.62340  0.44479  0.25487  1.0000
  C   C69       1.0  0.64235  0.45747  0.33423  1.0000
  N   N15       1.0  0.62573  0.46560  0.17712  1.0000
  C   C70       1.0  0.60741  0.45540  0.09975  1.0000
  C   C71       1.0  0.58433  0.42141  0.10060  1.0000
  N   N16       1.0  0.58144  0.40056  0.17767  1.0000
  H   H47       1.0  0.56983  0.41230  0.04452  1.0000
  C   C72       1.0  0.61188  0.47939  0.01826  1.0000
  H   H48       1.0  0.63110  0.50421  0.03050  1.0000
  C   C73       1.0  0.61542  0.59657  0.33206  1.0000
  C   C74       1.0  0.59290  0.60089  0.25304  1.0000
  C   C75       1.0  0.55863  0.62382  0.25377  1.0000
  C   C76       1.0  0.54635  0.64273  0.33344  1.0000
  N   N17       1.0  0.53738  0.62568  0.17676  1.0000
  C   C77       1.0  0.54712  0.60728  0.09921  1.0000
  C   C78       1.0  0.58110  0.58464  0.09907  1.0000
  N   N18       1.0  0.60237  0.58219  0.17542  1.0000
  H   H49       1.0  0.58988  0.57012  0.04281  1.0000
  C   C79       1.0  0.52261  0.61115  0.01861  1.0000
  H   H50       1.0  0.49787  0.63009  0.03155  1.0000
  C   C80       1.0  0.38776  0.40560  0.33737  1.0000
  C   C81       1.0  0.40970  0.40085  0.25763  1.0000
  C   C82       1.0  0.44404  0.37803  0.25782  1.0000
  C   C83       1.0  0.45691  0.35967  0.33761  1.0000
  N   N19       1.0  0.46476  0.37572  0.18011  1.0000
  C   C84       1.0  0.45441  0.39358  0.10233  1.0000
  C   C85       1.0  0.42036  0.41611  0.10268  1.0000
  N   N20       1.0  0.39962  0.41903  0.17976  1.0000
  H   H51       1.0  0.41114  0.43024  0.04626  1.0000
  C   C86       1.0  0.47836  0.38921  0.02098  1.0000
  H   H52       1.0  0.50330  0.37050  0.03372  1.0000
  C   C87       1.0  0.07874  0.37445  0.33642  1.0000
  C   C88       1.0  0.11830  0.38549  0.34062  1.0000
  C   C89       1.0  0.12963  0.42515  0.34389  1.0000
  C   C90       1.0  0.10050  0.45407  0.34445  1.0000
  C   C91       1.0  0.06069  0.44393  0.33882  1.0000
  C   C92       1.0  0.05027  0.40399  0.33401  1.0000
  H   H53       1.0  0.10843  0.48288  0.34619  1.0000
  H   H54       1.0  0.02153  0.39629  0.33146  1.0000
  H   H55       1.0  0.13918  0.36431  0.34117  1.0000
  C   C93       1.0  0.92405  0.63023  0.34244  1.0000
  C   C94       1.0  0.88455  0.61882  0.34240  1.0000
  C   C95       1.0  0.87358  0.57903  0.34184  1.0000
  C   C96       1.0  0.90303  0.55041  0.34130  1.0000
  C   C97       1.0  0.94280  0.56102  0.34152  1.0000
  C   C98       1.0  0.95290  0.60106  0.34201  1.0000
  H   H56       1.0  0.89540  0.52152  0.34023  1.0000
  H   H57       1.0  0.98157  0.60907  0.34159  1.0000
  H   H58       1.0  0.86347  0.63980  0.34248  1.0000
  C   C99       1.0  0.62943  0.07855  0.33647  1.0000
  C   C100      1.0  0.61850  0.11822  0.34051  1.0000
  C   C101      1.0  0.57904  0.12928  0.34372  1.0000
  C   C102      1.0  0.55021  0.09981  0.34434  1.0000
  C   C103      1.0  0.56023  0.05990  0.33884  1.0000
  C   C104      1.0  0.59996  0.04971  0.33417  1.0000
  H   H59       1.0  0.52154  0.10756  0.34584  1.0000
  H   H60       1.0  0.60757  0.02089  0.33174  1.0000
  H   H61       1.0  0.63961  0.13937  0.34105  1.0000
  C   C105      1.0  0.37254  0.92376  0.34159  1.0000
  C   C106      1.0  0.38352  0.88405  0.34221  1.0000
  C   C107      1.0  0.42304  0.87299  0.34194  1.0000
  C   C108      1.0  0.45182  0.90252  0.34105  1.0000
  C   C109      1.0  0.44168  0.94247  0.34062  1.0000
  C   C110      1.0  0.40194  0.95267  0.34081  1.0000
  H   H62       1.0  0.48051  0.89483  0.34031  1.0000
  H   H63       1.0  0.39431  0.98150  0.34009  1.0000
  H   H64       1.0  0.36244  0.86287  0.34253  1.0000
  C   C111      1.0  0.06566  0.14375  0.33874  1.0000
  C   C112      1.0  0.02666  0.13098  0.34005  1.0000
  C   C113      1.0  0.99557  0.15761  0.33675  1.0000
  C   C114      1.0  0.00393  0.19790  0.33082  1.0000
  C   C115      1.0  0.04280  0.21156  0.33003  1.0000
  C   C116      1.0  0.07343  0.18417  0.33393  1.0000
  H   H65       1.0  0.98157  0.21747  0.33109  1.0000
  H   H66       1.0  0.10162  0.19375  0.33520  1.0000
  H   H67       1.0  0.02078  0.10169  0.34448  1.0000
  C   C117      1.0  0.93689  0.86087  0.34161  1.0000
  C   C118      1.0  0.97589  0.87360  0.34223  1.0000
  C   C119      1.0  0.00694  0.84692  0.33927  1.0000
  C   C120      1.0  0.99853  0.80662  0.33438  1.0000
  C   C121      1.0  0.95964  0.79303  0.33409  1.0000
  C   C122      1.0  0.92904  0.82044  0.33772  1.0000
  H   H68       1.0  0.02086  0.78702  0.33468  1.0000
  H   H69       1.0  0.90084  0.81090  0.33948  1.0000
  H   H70       1.0  0.98182  0.90290  0.34594  1.0000
  C   C123      1.0  0.85907  0.06683  0.34038  1.0000
  C   C124      1.0  0.87171  0.02778  0.34233  1.0000
  C   C125      1.0  0.84518  0.99631  0.34001  1.0000
  C   C126      1.0  0.80508  0.00438  0.33377  1.0000
  C   C127      1.0  0.79153  0.04332  0.33195  1.0000
  C   C128      1.0  0.81885  0.07433  0.33536  1.0000
  H   H71       1.0  0.78558  0.98176  0.33427  1.0000
  H   H72       1.0  0.80938  0.10258  0.33597  1.0000
  H   H73       1.0  0.90087  0.02213  0.34657  1.0000
  C   C129      1.0  0.14325  0.93795  0.33965  1.0000
  C   C130      1.0  0.13080  0.97706  0.34039  1.0000
  C   C131      1.0  0.15752  0.00838  0.33825  1.0000
  C   C132      1.0  0.19762  0.00005  0.33364  1.0000
  C   C133      1.0  0.21095  0.96101  0.33318  1.0000
  C   C134      1.0  0.18344  0.93019  0.33628  1.0000
  H   H74       1.0  0.21725  0.02255  0.33444  1.0000
  H   H75       1.0  0.19273  0.90187  0.33786  1.0000
  H   H76       1.0  0.10165  0.98287  0.34389  1.0000
  C   C135      1.0  0.43777  0.64258  0.34085  1.0000
  C   C136      1.0  0.47678  0.63027  0.33901  1.0000
  C   C137      1.0  0.50784  0.65726  0.34100  1.0000
  C   C138      1.0  0.49935  0.69749  0.34633  1.0000
  C   C139      1.0  0.46044  0.71069  0.34782  1.0000
  C   C140      1.0  0.42988  0.68292  0.34511  1.0000
  H   H77       1.0  0.52165  0.71733  0.34547  1.0000
  H   H78       1.0  0.40165  0.69212  0.34437  1.0000
  H   H79       1.0  0.48269  0.60102  0.33524  1.0000
  C   C141      1.0  0.56554  0.35978  0.34179  1.0000
  C   C142      1.0  0.52653  0.37215  0.34093  1.0000
  C   C143      1.0  0.49546  0.34521  0.34433  1.0000
  C   C144      1.0  0.50388  0.30499  0.35007  1.0000
  C   C145      1.0  0.54276  0.29174  0.35041  1.0000
  C   C146      1.0  0.57336  0.31944  0.34634  1.0000
  H   H80       1.0  0.48154  0.28519  0.34995  1.0000
  H   H81       1.0  0.60156  0.31016  0.34473  1.0000
  H   H82       1.0  0.52064  0.40139  0.33678  1.0000
  C   C147      1.0  0.64371  0.56657  0.33851  1.0000
  C   C148      1.0  0.63092  0.52742  0.33782  1.0000
  C   C149      1.0  0.65734  0.49611  0.34070  1.0000
  C   C150      1.0  0.69749  0.50443  0.34615  1.0000
  C   C151      1.0  0.71120  0.54345  0.34641  1.0000
  C   C152      1.0  0.68399  0.57428  0.34263  1.0000
  H   H83       1.0  0.71689  0.48191  0.34594  1.0000
  H   H84       1.0  0.69358  0.60258  0.34110  1.0000
  H   H85       1.0  0.60173  0.52158  0.33410  1.0000
  C   C153      1.0  0.35960  0.43568  0.34408  1.0000
  C   C154      1.0  0.37253  0.47478  0.34293  1.0000
  C   C155      1.0  0.34621  0.50616  0.34565  1.0000
  C   C156      1.0  0.30605  0.49801  0.35127  1.0000
  C   C157      1.0  0.29223  0.45904  0.35223  1.0000
  C   C158      1.0  0.31931  0.42809  0.34851  1.0000
  H   H86       1.0  0.28671  0.52060  0.35067  1.0000
  H   H87       1.0  0.30961  0.39983  0.34713  1.0000
  H   H88       1.0  0.40173  0.48052  0.33872  1.0000
  C   C159      1.0  0.99493  0.52440  0.41606  1.0000
  C   C160      1.0  0.02401  0.49564  0.41527  1.0000
  H   H89       1.0  0.03943  0.49070  0.47292  1.0000
  H   H90       1.0  0.99017  0.53966  0.47405  1.0000
  H   H91       1.0  0.93071  0.48371  0.66293  1.0000
  H   H92       1.0  0.96646  0.51942  0.63658  1.0000
  C   C161      1.0  0.47868  0.99474  0.41518  1.0000
  C   C162      1.0  0.50795  0.02357  0.41472  1.0000
  H   H93       1.0  0.51283  0.03924  0.47219  1.0000
  H   H94       1.0  0.46310  0.99030  0.47285  1.0000
  H   H95       1.0  0.52025  0.92814  0.66467  1.0000
  H   H96       1.0  0.48569  0.96440  0.63625  1.0000
  C   C163      1.0  0.05100  0.25229  0.33318  1.0000
  C   C164      1.0  0.06411  0.27036  0.41324  1.0000
  C   C165      1.0  0.07251  0.31103  0.41520  1.0000
  C   C166      1.0  0.06819  0.33419  0.33706  1.0000
  N   N21       1.0  0.08361  0.32696  0.49494  1.0000
  C   C167      1.0  0.08747  0.30632  0.57230  1.0000
  C   C168      1.0  0.07973  0.26599  0.56948  1.0000
  N   N22       1.0  0.06825  0.24976  0.49081  1.0000
  H   H97       1.0  0.08190  0.24902  0.62563  1.0000
  C   C169      1.0  0.09838  0.32615  0.65634  1.0000
  H   H98       1.0  0.10127  0.35746  0.64562  1.0000
  C   C170      1.0  0.95139  0.75236  0.33782  1.0000
  C   C171      1.0  0.93947  0.73425  0.41882  1.0000
  C   C172      1.0  0.93111  0.69358  0.42131  1.0000
  C   C173      1.0  0.93428  0.67053  0.34280  1.0000
  N   N23       1.0  0.92120  0.67755  0.50175  1.0000
  C   C174      1.0  0.91848  0.69816  0.57940  1.0000
  C   C175      1.0  0.92616  0.73850  0.57617  1.0000
  N   N24       1.0  0.93647  0.75481  0.49673  1.0000
  H   H99       1.0  0.92486  0.75541  0.63257  1.0000
  C   C176      1.0  0.90907  0.67825  0.66426  1.0000
  H   H100      1.0  0.90613  0.64692  0.65382  1.0000
  C   C177      1.0  0.75099  0.05129  0.33458  1.0000
  C   C178      1.0  0.73272  0.06371  0.41479  1.0000
  C   C179      1.0  0.69227  0.07198  0.41621  1.0000
  C   C180      1.0  0.66950  0.06821  0.33744  1.0000
  N   N25       1.0  0.67613  0.08238  0.49604  1.0000
  C   C181      1.0  0.69636  0.08568  0.57401  1.0000
  C   C182      1.0  0.73647  0.07809  0.57179  1.0000
  N   N26       1.0  0.75292  0.06730  0.49299  1.0000
  H   H101      1.0  0.75313  0.07986  0.62843  1.0000
  C   C183      1.0  0.67628  0.09575  0.65807  1.0000
  H   H102      1.0  0.64518  0.09867  0.64673  1.0000
  C   C184      1.0  0.25139  0.95265  0.33713  1.0000
  C   C185      1.0  0.26895  0.93920  0.41735  1.0000
  C   C186      1.0  0.30924  0.93026  0.41981  1.0000
  C   C187      1.0  0.33253  0.93424  0.34191  1.0000
  N   N27       1.0  0.32471  0.91897  0.49976  1.0000
  C   C188      1.0  0.30388  0.91539  0.57686  1.0000
  C   C189      1.0  0.26390  0.92359  0.57351  1.0000
  N   N28       1.0  0.24818  0.93530  0.49464  1.0000
  H   H103      1.0  0.24683  0.92162  0.62944  1.0000
  C   C190      1.0  0.32316  0.90431  0.66127  1.0000
  H   H104      1.0  0.35432  0.90131  0.65115  1.0000
  C   C191      1.0  0.44732  0.81480  0.42021  1.0000
  C   C192      1.0  0.45647  0.77477  0.42195  1.0000
  H   H105      1.0  0.46590  0.76271  0.48087  1.0000
  H   H106      1.0  0.45049  0.83076  0.47780  1.0000
  H   H107      1.0  0.37804  0.81313  0.66206  1.0000
  H   H108      1.0  0.42809  0.82009  0.63752  1.0000
  C   C193      1.0  0.55519  0.18754  0.42265  1.0000
  C   C194      1.0  0.54645  0.22766  0.42456  1.0000
  H   H109      1.0  0.53721  0.23979  0.48357  1.0000
  H   H110      1.0  0.55203  0.17158  0.48023  1.0000
  H   H111      1.0  0.62361  0.18908  0.66345  1.0000
  H   H112      1.0  0.57352  0.18173  0.64001  1.0000
  C   C195      1.0  0.81514  0.55481  0.41929  1.0000
  C   C196      1.0  0.77505  0.54637  0.42081  1.0000
  H   H113      1.0  0.76274  0.53707  0.47965  1.0000
  H   H114      1.0  0.83086  0.55141  0.47702  1.0000
  H   H115      1.0  0.81542  0.62533  0.66190  1.0000
  H   H116      1.0  0.82149  0.57505  0.63687  1.0000
  C   C197      1.0  0.18804  0.44826  0.42342  1.0000
  C   C198      1.0  0.22823  0.45621  0.42585  1.0000
  H   H117      1.0  0.24045  0.46511  0.48510  1.0000
  H   H118      1.0  0.17214  0.45158  0.48089  1.0000
  H   H119      1.0  0.18826  0.38045  0.66349  1.0000
  H   H120      1.0  0.18285  0.43100  0.64052  1.0000
  C   C199      1.0  0.09561  0.11545  0.34551  1.0000
  C   C200      1.0  0.10038  0.09329  0.42502  1.0000
  C   C201      1.0  0.12384  0.05930  0.42492  1.0000
  C   C202      1.0  0.14278  0.04696  0.34543  1.0000
  N   N29       1.0  0.12621  0.03834  0.50241  1.0000
  C   C203      1.0  0.10784  0.04813  0.57987  1.0000
  C   C204      1.0  0.08466  0.08183  0.57940  1.0000
  N   N30       1.0  0.08170  0.10281  0.50256  1.0000
  H   H121      1.0  0.07010  0.09062  0.63555  1.0000
  C   C205      1.0  0.11233  0.02397  0.66104  1.0000
  H   H122      1.0  0.13164  0.99943  0.64850  1.0000
  C   C206      1.0  0.90703  0.88922  0.34839  1.0000
  C   C207      1.0  0.90273  0.91179  0.42744  1.0000
  C   C208      1.0  0.87936  0.94583  0.42707  1.0000
  C   C209      1.0  0.86005  0.95781  0.34774  1.0000
  N   N31       1.0  0.87741  0.96714  0.50412  1.0000
  C   C210      1.0  0.89615  0.95768  0.58134  1.0000
  C   C211      1.0  0.91930  0.92396  0.58104  1.0000
  N   N32       1.0  0.92180  0.90261  0.50468  1.0000
  H   H123      1.0  0.93413  0.91541  0.63701  1.0000
  C   C212      1.0  0.89210  0.98218  0.66210  1.0000
  H   H124      1.0  0.87264  0.00661  0.64963  1.0000
  C   C213      1.0  0.88747  0.09697  0.34633  1.0000
  C   C214      1.0  0.90968  0.10198  0.42564  1.0000
  C   C215      1.0  0.94425  0.12477  0.42448  1.0000
  C   C216      1.0  0.95704  0.14286  0.34415  1.0000
  N   N33       1.0  0.96520  0.12736  0.50181  1.0000
  C   C217      1.0  0.95489  0.10982  0.58011  1.0000
  C   C218      1.0  0.92060  0.08734  0.58075  1.0000
  N   N34       1.0  0.89962  0.08413  0.50404  1.0000
  H   H125      1.0  0.91138  0.07348  0.63763  1.0000
  C   C219      1.0  0.97912  0.11448  0.66101  1.0000
  H   H126      1.0  0.00425  0.13305  0.64746  1.0000
  C   C220      1.0  0.11480  0.90793  0.34621  1.0000
  C   C221      1.0  0.09289  0.90302  0.42597  1.0000
  C   C222      1.0  0.05844  0.88005  0.42574  1.0000
  C   C223      1.0  0.04547  0.86168  0.34591  1.0000
  N   N35       1.0  0.03777  0.87755  0.50351  1.0000
  C   C224      1.0  0.04826  0.89536  0.58137  1.0000
  C   C225      1.0  0.08243  0.91805  0.58104  1.0000
  N   N36       1.0  0.10313  0.92114  0.50391  1.0000
  H   H127      1.0  0.09177  0.93213  0.63752  1.0000
  C   C226      1.0  0.02438  0.89077  0.66280  1.0000
  H   H128      1.0  0.99930  0.87201  0.65002  1.0000
  C   C227      1.0  0.36547  0.56793  0.41567  1.0000
  C   C228      1.0  0.38846  0.60202  0.41449  1.0000
  H   H129      1.0  0.39317  0.61649  0.47367  1.0000
  H   H130      1.0  0.35403  0.55875  0.47550  1.0000
  H   H131      1.0  0.41770  0.51071  0.66593  1.0000
  H   H132      1.0  0.37674  0.53883  0.63433  1.0000
  C   C229      1.0  0.63863  0.43449  0.41254  1.0000
  C   C230      1.0  0.61545  0.40052  0.41289  1.0000
  H   H133      1.0  0.61114  0.38623  0.47247  1.0000
  H   H134      1.0  0.65038  0.44392  0.47184  1.0000
  H   H135      1.0  0.58365  0.49030  0.66363  1.0000
  H   H136      1.0  0.62424  0.46184  0.63103  1.0000
  C   C231      1.0  0.56968  0.63931  0.41107  1.0000
  C   C232      1.0  0.60367  0.61658  0.41042  1.0000
  H   H137      1.0  0.61810  0.61230  0.46969  1.0000
  H   H138      1.0  0.56055  0.65093  0.47070  1.0000
  H   H139      1.0  0.51177  0.58255  0.66489  1.0000
  H   H140      1.0  0.53957  0.62367  0.63045  1.0000
  C   C233      1.0  0.43412  0.36343  0.41598  1.0000
  C   C234      1.0  0.40009  0.38609  0.41592  1.0000
  H   H141      1.0  0.38607  0.39069  0.47559  1.0000
  H   H142      1.0  0.44366  0.35210  0.47554  1.0000
  H   H143      1.0  0.48888  0.41770  0.66562  1.0000
  H   H144      1.0  0.46105  0.37616  0.63411  1.0000
