data_image0
_chemical_formula_structural       CNHC3H2C5HOCNHC3H2C5HOC4HCHC4HCHCNHCNH2C4OC4OCNHCNH2C4OC4OCNHCNHCNHC6H3C4HCOC4HCOC4HCOCNHCNHCNHC6H3C4HCOC4HCOC4HCOCNCHNHCNCHNHCNCHNHC6H3C6H3C4HC6HO2C4HC6HO2C4HC6HO2CNCHNHCNCHNHCNCHNHC6H3C6H3C4HC6HO2C4HC6HO2C4HC6HO2
_chemical_formula_sum              "C192 N24 H72 O24"
_cell_length_a       44.0909
_cell_length_b       44.0908
_cell_length_c       14.8365
_cell_angle_alpha    90
_cell_angle_beta     90
_cell_angle_gamma    120

_space_group_name_H-M_alt    "P 1"
_space_group_IT_number       1

loop_
  _space_group_symop_operation_xyz
  'x, y, z'

loop_
  _atom_site_type_symbol
  _atom_site_label
  _atom_site_symmetry_multiplicity
  _atom_site_fract_x
  _atom_site_fract_y
  _atom_site_fract_z
  _atom_site_occupancy
  C   C1        1.0  0.08061  0.29169  0.26663  1.0000
  N   N1        1.0  0.04510  0.27393  0.27096  1.0000
  H   H1        1.0  0.09244  0.29760  0.20484  1.0000
  C   C2        1.0  0.13775  0.32026  0.34372  1.0000
  C   C3        1.0  0.15650  0.35728  0.34393  1.0000
  C   C4        1.0  0.15649  0.30197  0.34391  1.0000
  H   H2        1.0  0.14307  0.27514  0.34497  1.0000
  H   H3        1.0  0.14308  0.37070  0.34496  1.0000
  C   C5        1.0  0.02679  0.26477  0.34971  1.0000
  C   C6        1.0  0.10064  0.30170  0.34652  1.0000
  C   C7        1.0  0.08259  0.29268  0.42960  1.0000
  C   C8        1.0  0.04551  0.27414  0.43263  1.0000
  C   C9        1.0  0.02667  0.26471  0.51474  1.0000
  H   H4        1.0  0.09671  0.29974  0.48826  1.0000
  O   O1        1.0  0.04363  0.27319  0.59497  1.0000
  C   C10       1.0  0.08061  0.79169  0.26663  1.0000
  N   N2        1.0  0.04510  0.77393  0.27096  1.0000
  H   H5        1.0  0.09244  0.79760  0.20484  1.0000
  C   C11       1.0  0.13775  0.82026  0.34372  1.0000
  C   C12       1.0  0.15650  0.85728  0.34393  1.0000
  C   C13       1.0  0.15649  0.80197  0.34391  1.0000
  H   H6        1.0  0.14307  0.77514  0.34497  1.0000
  H   H7        1.0  0.14308  0.87070  0.34496  1.0000
  C   C14       1.0  0.02680  0.76478  0.34971  1.0000
  C   C15       1.0  0.10064  0.80170  0.34652  1.0000
  C   C16       1.0  0.08259  0.79268  0.42960  1.0000
  C   C17       1.0  0.04551  0.77414  0.43263  1.0000
  C   C18       1.0  0.02667  0.76472  0.51474  1.0000
  H   H8        1.0  0.09671  0.79974  0.48826  1.0000
  O   O2        1.0  0.04363  0.77319  0.59497  1.0000
  C   C19       1.0  0.19353  0.37602  0.34371  1.0000
  C   C20       1.0  0.21180  0.35728  0.34393  1.0000
  C   C21       1.0  0.19352  0.32025  0.34372  1.0000
  C   C22       1.0  0.21207  0.30169  0.34652  1.0000
  H   H9        1.0  0.21404  0.29973  0.48826  1.0000
  C   C23       1.0  0.21209  0.41314  0.34651  1.0000
  H   H10       1.0  0.21405  0.41706  0.48826  1.0000
  C   C24       1.0  0.19353  0.87602  0.34371  1.0000
  C   C25       1.0  0.21180  0.85728  0.34393  1.0000
  C   C26       1.0  0.19352  0.82025  0.34372  1.0000
  C   C27       1.0  0.21207  0.80169  0.34652  1.0000
  H   H11       1.0  0.21404  0.79973  0.48826  1.0000
  C   C28       1.0  0.21209  0.91314  0.34651  1.0000
  H   H12       1.0  0.21405  0.91706  0.48826  1.0000
  C   C29       1.0  0.22209  0.29168  0.26664  1.0000
  N   N3        1.0  0.23985  0.27392  0.27097  1.0000
  H   H13       1.0  0.21617  0.29759  0.20484  1.0000
  C   C30       1.0  0.22210  0.43317  0.26663  1.0000
  N   N4        1.0  0.23985  0.46868  0.27096  1.0000
  H   H14       1.0  0.21618  0.42134  0.20483  1.0000
  H   H15       1.0  0.23864  0.37069  0.34496  1.0000
  C   C31       1.0  0.24900  0.26477  0.34971  1.0000
  C   C32       1.0  0.22110  0.29267  0.42960  1.0000
  C   C33       1.0  0.23964  0.27413  0.43264  1.0000
  C   C34       1.0  0.24906  0.26471  0.51474  1.0000
  O   O3        1.0  0.24058  0.27319  0.59498  1.0000
  C   C35       1.0  0.24900  0.48698  0.34971  1.0000
  C   C36       1.0  0.22111  0.43119  0.42960  1.0000
  C   C37       1.0  0.23965  0.46826  0.43262  1.0000
  C   C38       1.0  0.24907  0.48711  0.51474  1.0000
  O   O4        1.0  0.24059  0.47015  0.59497  1.0000
  C   C39       1.0  0.22209  0.79168  0.26664  1.0000
  N   N5        1.0  0.23985  0.77392  0.27097  1.0000
  H   H16       1.0  0.21617  0.79759  0.20484  1.0000
  C   C40       1.0  0.22210  0.93317  0.26663  1.0000
  N   N6        1.0  0.23985  0.96868  0.27096  1.0000
  H   H17       1.0  0.21618  0.92134  0.20483  1.0000
  H   H18       1.0  0.23864  0.87069  0.34496  1.0000
  C   C41       1.0  0.24900  0.76477  0.34971  1.0000
  C   C42       1.0  0.22110  0.79267  0.42960  1.0000
  C   C43       1.0  0.23964  0.77413  0.43264  1.0000
  C   C44       1.0  0.24906  0.76471  0.51474  1.0000
  O   O5        1.0  0.24058  0.77319  0.59498  1.0000
  C   C45       1.0  0.24900  0.98698  0.34971  1.0000
  C   C46       1.0  0.22111  0.93119  0.42960  1.0000
  C   C47       1.0  0.23965  0.96827  0.43262  1.0000
  C   C48       1.0  0.24907  0.98710  0.51474  1.0000
  O   O6        1.0  0.24059  0.97015  0.59497  1.0000
  C   C49       1.0  0.29442  0.21937  0.26634  1.0000
  N   N7        1.0  0.27666  0.23712  0.27081  1.0000
  H   H19       1.0  0.30031  0.21347  0.20450  1.0000
  C   C50       1.0  0.29441  0.07781  0.26634  1.0000
  N   N8        1.0  0.27665  0.04230  0.27081  1.0000
  H   H20       1.0  0.30031  0.08960  0.20450  1.0000
  C   C51       1.0  0.43597  0.21936  0.26634  1.0000
  N   N9        1.0  0.47148  0.23712  0.27081  1.0000
  H   H21       1.0  0.42418  0.21346  0.20449  1.0000
  C   C52       1.0  0.37878  0.19076  0.34320  1.0000
  C   C53       1.0  0.36003  0.15374  0.34342  1.0000
  C   C54       1.0  0.32301  0.13500  0.34322  1.0000
  C   C55       1.0  0.30473  0.15375  0.34340  1.0000
  C   C56       1.0  0.32301  0.19077  0.34320  1.0000
  C   C57       1.0  0.36004  0.20905  0.34340  1.0000
  H   H22       1.0  0.27789  0.14033  0.34452  1.0000
  H   H23       1.0  0.37346  0.23589  0.34451  1.0000
  H   H24       1.0  0.37345  0.14032  0.34451  1.0000
  C   C58       1.0  0.30446  0.20933  0.34614  1.0000
  C   C59       1.0  0.26753  0.24625  0.34963  1.0000
  C   C60       1.0  0.27692  0.23686  0.43248  1.0000
  C   C61       1.0  0.29546  0.21833  0.42930  1.0000
  H   H25       1.0  0.30254  0.21125  0.48790  1.0000
  C   C62       1.0  0.26752  0.24626  0.51467  1.0000
  O   O7        1.0  0.27603  0.23776  0.59483  1.0000
  C   C63       1.0  0.30445  0.09788  0.34615  1.0000
  C   C64       1.0  0.26753  0.02404  0.34963  1.0000
  C   C65       1.0  0.27691  0.04281  0.43247  1.0000
  C   C66       1.0  0.29545  0.07989  0.42929  1.0000
  H   H26       1.0  0.30253  0.09405  0.48791  1.0000
  C   C67       1.0  0.26752  0.02402  0.51466  1.0000
  O   O8        1.0  0.27602  0.04103  0.59483  1.0000
  C   C68       1.0  0.41589  0.20932  0.34614  1.0000
  C   C69       1.0  0.48973  0.24624  0.34962  1.0000
  C   C70       1.0  0.47096  0.23686  0.43247  1.0000
  C   C71       1.0  0.43389  0.21832  0.42929  1.0000
  H   H27       1.0  0.41973  0.21124  0.48790  1.0000
  C   C72       1.0  0.48975  0.24625  0.51466  1.0000
  O   O9        1.0  0.47275  0.23775  0.59482  1.0000
  C   C73       1.0  0.29442  0.71937  0.26634  1.0000
  N   N10       1.0  0.27666  0.73712  0.27081  1.0000
  H   H28       1.0  0.30031  0.71347  0.20450  1.0000
  C   C74       1.0  0.29441  0.57781  0.26634  1.0000
  N   N11       1.0  0.27665  0.54230  0.27081  1.0000
  H   H29       1.0  0.30031  0.58960  0.20450  1.0000
  C   C75       1.0  0.43597  0.71936  0.26634  1.0000
  N   N12       1.0  0.47148  0.73712  0.27081  1.0000
  H   H30       1.0  0.42417  0.71346  0.20449  1.0000
  C   C76       1.0  0.37878  0.69076  0.34320  1.0000
  C   C77       1.0  0.36003  0.65374  0.34342  1.0000
  C   C78       1.0  0.32301  0.63500  0.34322  1.0000
  C   C79       1.0  0.30473  0.65375  0.34340  1.0000
  C   C80       1.0  0.32301  0.69077  0.34320  1.0000
  C   C81       1.0  0.36004  0.70905  0.34340  1.0000
  H   H31       1.0  0.27789  0.64033  0.34452  1.0000
  H   H32       1.0  0.37346  0.73589  0.34451  1.0000
  H   H33       1.0  0.37345  0.64032  0.34451  1.0000
  C   C82       1.0  0.30446  0.70933  0.34614  1.0000
  C   C83       1.0  0.26753  0.74625  0.34963  1.0000
  C   C84       1.0  0.27692  0.73686  0.43248  1.0000
  C   C85       1.0  0.29546  0.71833  0.42930  1.0000
  H   H34       1.0  0.30254  0.71125  0.48790  1.0000
  C   C86       1.0  0.26752  0.74626  0.51467  1.0000
  O   O10       1.0  0.27603  0.73776  0.59483  1.0000
  C   C87       1.0  0.30444  0.59788  0.34615  1.0000
  C   C88       1.0  0.26753  0.52404  0.34963  1.0000
  C   C89       1.0  0.27691  0.54281  0.43247  1.0000
  C   C90       1.0  0.29545  0.57989  0.42929  1.0000
  H   H35       1.0  0.30253  0.59405  0.48791  1.0000
  C   C91       1.0  0.26752  0.52402  0.51466  1.0000
  O   O11       1.0  0.27602  0.54103  0.59483  1.0000
  C   C92       1.0  0.41589  0.70932  0.34614  1.0000
  C   C93       1.0  0.48973  0.74624  0.34962  1.0000
  C   C94       1.0  0.47097  0.73686  0.43247  1.0000
  C   C95       1.0  0.43389  0.71832  0.42929  1.0000
  H   H36       1.0  0.41973  0.71124  0.48790  1.0000
  C   C96       1.0  0.48975  0.74625  0.51466  1.0000
  O   O12       1.0  0.47275  0.73775  0.59482  1.0000
  C   C97       1.0  0.79442  0.21937  0.26634  1.0000
  N   N13       1.0  0.77666  0.23712  0.27081  1.0000
  C   C98       1.0  0.72209  0.29168  0.26664  1.0000
  H   H37       1.0  0.80032  0.21347  0.20450  1.0000
  N   N14       1.0  0.73985  0.27392  0.27097  1.0000
  H   H38       1.0  0.71617  0.29759  0.20484  1.0000
  C   C99       1.0  0.79441  0.07781  0.26634  1.0000
  N   N15       1.0  0.77665  0.04230  0.27081  1.0000
  C   C100      1.0  0.72210  0.43317  0.26663  1.0000
  H   H39       1.0  0.80030  0.08960  0.20450  1.0000
  N   N16       1.0  0.73986  0.46868  0.27096  1.0000
  H   H40       1.0  0.71618  0.42134  0.20483  1.0000
  C   C101      1.0  0.93597  0.21936  0.26634  1.0000
  N   N17       1.0  0.97148  0.23712  0.27081  1.0000
  C   C102      1.0  0.58061  0.29169  0.26663  1.0000
  H   H41       1.0  0.92417  0.21346  0.20449  1.0000
  N   N18       1.0  0.54509  0.27393  0.27096  1.0000
  H   H42       1.0  0.59244  0.29760  0.20484  1.0000
  C   C103      1.0  0.63775  0.32026  0.34372  1.0000
  C   C104      1.0  0.65650  0.35728  0.34393  1.0000
  C   C105      1.0  0.69353  0.37602  0.34371  1.0000
  C   C106      1.0  0.71180  0.35728  0.34393  1.0000
  C   C107      1.0  0.69352  0.32025  0.34372  1.0000
  C   C108      1.0  0.65649  0.30197  0.34391  1.0000
  H   H43       1.0  0.73864  0.37069  0.34496  1.0000
  H   H44       1.0  0.64307  0.27514  0.34497  1.0000
  H   H45       1.0  0.64308  0.37070  0.34496  1.0000
  C   C109      1.0  0.87878  0.19076  0.34320  1.0000
  C   C110      1.0  0.86003  0.15374  0.34342  1.0000
  C   C111      1.0  0.82301  0.13500  0.34322  1.0000
  C   C112      1.0  0.80473  0.15375  0.34340  1.0000
  C   C113      1.0  0.82301  0.19077  0.34320  1.0000
  C   C114      1.0  0.86003  0.20905  0.34340  1.0000
  H   H46       1.0  0.77789  0.14033  0.34452  1.0000
  H   H47       1.0  0.87346  0.23589  0.34451  1.0000
  H   H48       1.0  0.87345  0.14032  0.34451  1.0000
  C   C115      1.0  0.80446  0.20933  0.34614  1.0000
  C   C116      1.0  0.76753  0.24625  0.34963  1.0000
  C   C117      1.0  0.77692  0.23686  0.43248  1.0000
  C   C118      1.0  0.79546  0.21833  0.42930  1.0000
  H   H49       1.0  0.80254  0.21125  0.48790  1.0000
  C   C119      1.0  0.74900  0.26477  0.34971  1.0000
  C   C120      1.0  0.71207  0.30169  0.34652  1.0000
  C   C121      1.0  0.72110  0.29267  0.42960  1.0000
  C   C122      1.0  0.73964  0.27413  0.43264  1.0000
  C   C123      1.0  0.74906  0.26471  0.51474  1.0000
  C   C124      1.0  0.76752  0.24626  0.51467  1.0000
  H   H50       1.0  0.71403  0.29973  0.48826  1.0000
  O   O13       1.0  0.74058  0.27319  0.59498  1.0000
  O   O14       1.0  0.77603  0.23776  0.59483  1.0000
  C   C125      1.0  0.80444  0.09788  0.34615  1.0000
  C   C126      1.0  0.76753  0.02404  0.34963  1.0000
  C   C127      1.0  0.77691  0.04281  0.43247  1.0000
  C   C128      1.0  0.79545  0.07989  0.42929  1.0000
  H   H51       1.0  0.80253  0.09405  0.48791  1.0000
  C   C129      1.0  0.74900  0.48698  0.34971  1.0000
  C   C130      1.0  0.71209  0.41314  0.34651  1.0000
  C   C131      1.0  0.72111  0.43119  0.42960  1.0000
  C   C132      1.0  0.73965  0.46826  0.43262  1.0000
  C   C133      1.0  0.74906  0.48711  0.51474  1.0000
  C   C134      1.0  0.76752  0.02402  0.51466  1.0000
  H   H52       1.0  0.71405  0.41706  0.48826  1.0000
  O   O15       1.0  0.74059  0.47015  0.59497  1.0000
  O   O16       1.0  0.77602  0.04103  0.59483  1.0000
  C   C135      1.0  0.91589  0.20932  0.34614  1.0000
  C   C136      1.0  0.98973  0.24624  0.34962  1.0000
  C   C137      1.0  0.97097  0.23686  0.43247  1.0000
  C   C138      1.0  0.93389  0.21832  0.42929  1.0000
  H   H53       1.0  0.91973  0.21124  0.48790  1.0000
  C   C139      1.0  0.52679  0.26477  0.34971  1.0000
  C   C140      1.0  0.60064  0.30170  0.34652  1.0000
  C   C141      1.0  0.58259  0.29268  0.42960  1.0000
  C   C142      1.0  0.54551  0.27414  0.43263  1.0000
  C   C143      1.0  0.52667  0.26471  0.51474  1.0000
  C   C144      1.0  0.98975  0.24625  0.51466  1.0000
  H   H54       1.0  0.59671  0.29974  0.48826  1.0000
  O   O17       1.0  0.54363  0.27319  0.59497  1.0000
  O   O18       1.0  0.97274  0.23775  0.59482  1.0000
  C   C145      1.0  0.79442  0.71937  0.26634  1.0000
  N   N19       1.0  0.77666  0.73712  0.27081  1.0000
  C   C146      1.0  0.72209  0.79168  0.26664  1.0000
  H   H55       1.0  0.80031  0.71347  0.20450  1.0000
  N   N20       1.0  0.73985  0.77392  0.27097  1.0000
  H   H56       1.0  0.71617  0.79759  0.20484  1.0000
  C   C147      1.0  0.79441  0.57781  0.26634  1.0000
  N   N21       1.0  0.77665  0.54230  0.27081  1.0000
  C   C148      1.0  0.72210  0.93317  0.26663  1.0000
  H   H57       1.0  0.80031  0.58960  0.20450  1.0000
  N   N22       1.0  0.73986  0.96868  0.27096  1.0000
  H   H58       1.0  0.71618  0.92134  0.20483  1.0000
  C   C149      1.0  0.93597  0.71936  0.26634  1.0000
  N   N23       1.0  0.97148  0.73712  0.27081  1.0000
  C   C150      1.0  0.58061  0.79169  0.26663  1.0000
  H   H59       1.0  0.92417  0.71346  0.20449  1.0000
  N   N24       1.0  0.54510  0.77393  0.27096  1.0000
  H   H60       1.0  0.59244  0.79760  0.20484  1.0000
  C   C151      1.0  0.63775  0.82026  0.34372  1.0000
  C   C152      1.0  0.65650  0.85728  0.34393  1.0000
  C   C153      1.0  0.69353  0.87602  0.34371  1.0000
  C   C154      1.0  0.71180  0.85728  0.34393  1.0000
  C   C155      1.0  0.69352  0.82025  0.34372  1.0000
  C   C156      1.0  0.65650  0.80197  0.34391  1.0000
  H   H61       1.0  0.73864  0.87069  0.34496  1.0000
  H   H62       1.0  0.64307  0.77514  0.34497  1.0000
  H   H63       1.0  0.64308  0.87070  0.34496  1.0000
  C   C157      1.0  0.87878  0.69076  0.34320  1.0000
  C   C158      1.0  0.86003  0.65374  0.34342  1.0000
  C   C159      1.0  0.82301  0.63500  0.34322  1.0000
  C   C160      1.0  0.80473  0.65375  0.34340  1.0000
  C   C161      1.0  0.82301  0.69077  0.34320  1.0000
  C   C162      1.0  0.86003  0.70905  0.34340  1.0000
  H   H64       1.0  0.77789  0.64033  0.34452  1.0000
  H   H65       1.0  0.87346  0.73589  0.34451  1.0000
  H   H66       1.0  0.87345  0.64032  0.34451  1.0000
  C   C163      1.0  0.80446  0.70933  0.34614  1.0000
  C   C164      1.0  0.76753  0.74625  0.34963  1.0000
  C   C165      1.0  0.77692  0.73686  0.43248  1.0000
  C   C166      1.0  0.79546  0.71833  0.42930  1.0000
  H   H67       1.0  0.80254  0.71125  0.48790  1.0000
  C   C167      1.0  0.74900  0.76477  0.34971  1.0000
  C   C168      1.0  0.71207  0.80169  0.34652  1.0000
  C   C169      1.0  0.72110  0.79267  0.42960  1.0000
  C   C170      1.0  0.73964  0.77413  0.43264  1.0000
  C   C171      1.0  0.74906  0.76471  0.51474  1.0000
  C   C172      1.0  0.76752  0.74626  0.51467  1.0000
  H   H68       1.0  0.71403  0.79973  0.48826  1.0000
  O   O19       1.0  0.74058  0.77319  0.59498  1.0000
  O   O20       1.0  0.77603  0.73776  0.59483  1.0000
  C   C173      1.0  0.80444  0.59788  0.34615  1.0000
  C   C174      1.0  0.76753  0.52404  0.34963  1.0000
  C   C175      1.0  0.77691  0.54281  0.43247  1.0000
  C   C176      1.0  0.79545  0.57989  0.42929  1.0000
  H   H69       1.0  0.80253  0.59405  0.48791  1.0000
  C   C177      1.0  0.74900  0.98698  0.34971  1.0000
  C   C178      1.0  0.71209  0.91314  0.34651  1.0000
  C   C179      1.0  0.72111  0.93119  0.42960  1.0000
  C   C180      1.0  0.73965  0.96827  0.43262  1.0000
  C   C181      1.0  0.74906  0.98710  0.51474  1.0000
  C   C182      1.0  0.76752  0.52402  0.51466  1.0000
  H   H70       1.0  0.71405  0.91706  0.48826  1.0000
  O   O21       1.0  0.74059  0.97015  0.59497  1.0000
  O   O22       1.0  0.77602  0.54103  0.59483  1.0000
  C   C183      1.0  0.91589  0.70932  0.34614  1.0000
  C   C184      1.0  0.98973  0.74624  0.34962  1.0000
  C   C185      1.0  0.97097  0.73686  0.43247  1.0000
  C   C186      1.0  0.93389  0.71832  0.42929  1.0000
  H   H71       1.0  0.91973  0.71124  0.48790  1.0000
  C   C187      1.0  0.52679  0.76478  0.34971  1.0000
  C   C188      1.0  0.60064  0.80170  0.34652  1.0000
  C   C189      1.0  0.58259  0.79268  0.42960  1.0000
  C   C190      1.0  0.54551  0.77414  0.43263  1.0000
  C   C191      1.0  0.52667  0.76472  0.51474  1.0000
  C   C192      1.0  0.98975  0.74625  0.51466  1.0000
  H   H72       1.0  0.59671  0.79974  0.48826  1.0000
  O   O23       1.0  0.54363  0.77319  0.59497  1.0000
  O   O24       1.0  0.97275  0.73775  0.59482  1.0000
