data_image0
_chemical_formula_structural       HC8HC7HCH4C3H3C8HC7HCH4C4H4C2HC4HNH2NO2NC2HC4HNH2NO2NC2HC4HNH2NO2NC2HC4HNH2NO2NC2HC4HNH2NO2NC2HC4HNH2NO2NC8HC7HCH4C4H3CHC6H2NH2NO2NC6H2NH2NO2NC6H2NH2NO2NC6H2NH2NO2NC6H2NH2NO2NC6H2NH2NO2N
_chemical_formula_sum              "H78 C132 N36 O24"
_cell_length_a       38.3762
_cell_length_b       38.3762
_cell_length_c       14.9674
_cell_angle_alpha    90.0002
_cell_angle_beta     89.9998
_cell_angle_gamma    120

_space_group_name_H-M_alt    "P 1"
_space_group_IT_number       1

loop_
  _space_group_symop_operation_xyz
  'x, y, z'

loop_
  _atom_site_type_symbol
  _atom_site_label
  _atom_site_symmetry_multiplicity
  _atom_site_fract_x
  _atom_site_fract_y
  _atom_site_fract_z
  _atom_site_occupancy
  H   H1        1.0  0.12299  0.53100  0.26470  1.0000
  C   C1        1.0  0.51015  0.54236  0.34690  1.0000
  C   C2        1.0  0.51332  0.50689  0.34293  1.0000
  C   C3        1.0  0.47795  0.46830  0.33762  1.0000
  C   C4        1.0  0.43994  0.46542  0.34563  1.0000
  C   C5        1.0  0.43627  0.50003  0.35427  1.0000
  C   C6        1.0  0.47136  0.53878  0.35088  1.0000
  C   C7        1.0  0.55218  0.51132  0.34545  1.0000
  C   C8        1.0  0.46907  0.57443  0.35165  1.0000
  H   H2        1.0  0.41439  0.43760  0.34406  1.0000
  C   C9        1.0  0.54568  0.58130  0.34688  1.0000
  C   C10       1.0  0.58447  0.58488  0.35078  1.0000
  C   C11       1.0  0.61957  0.62364  0.35412  1.0000
  C   C12       1.0  0.61589  0.65825  0.34555  1.0000
  C   C13       1.0  0.57788  0.65536  0.33753  1.0000
  C   C14       1.0  0.54251  0.61677  0.34291  1.0000
  C   C15       1.0  0.58676  0.54923  0.35156  1.0000
  H   H3        1.0  0.64145  0.68607  0.34395  1.0000
  C   C16       1.0  0.50365  0.61234  0.34545  1.0000
  H   H4        1.0  0.61388  0.55025  0.35392  1.0000
  H   H5        1.0  0.55600  0.48678  0.34593  1.0000
  H   H6        1.0  0.49983  0.63688  0.34598  1.0000
  H   H7        1.0  0.44196  0.57340  0.35402  1.0000
  C   C17       1.0  0.57621  0.68969  0.31574  1.0000
  C   C18       1.0  0.65728  0.62889  0.37161  1.0000
  C   C19       1.0  0.47962  0.43397  0.31578  1.0000
  H   H8        1.0  0.55872  0.68775  0.26474  1.0000
  H   H9        1.0  0.66544  0.63015  0.43523  1.0000
  H   H10       1.0  0.49705  0.43589  0.26467  1.0000
  C   C20       1.0  0.54739  0.06353  0.34694  1.0000
  C   C21       1.0  0.58286  0.10217  0.34297  1.0000
  C   C22       1.0  0.62145  0.10539  0.33758  1.0000
  C   C23       1.0  0.62433  0.07026  0.34562  1.0000
  C   C24       1.0  0.58973  0.03198  0.35422  1.0000
  C   C25       1.0  0.55096  0.02831  0.35085  1.0000
  C   C26       1.0  0.57843  0.13660  0.34554  1.0000
  C   C27       1.0  0.51532  0.99038  0.35166  1.0000
  H   H11       1.0  0.65215  0.07253  0.34398  1.0000
  C   C28       1.0  0.50845  0.06011  0.34693  1.0000
  C   C29       1.0  0.50487  0.09533  0.35088  1.0000
  C   C30       1.0  0.46611  0.09166  0.35424  1.0000
  C   C31       1.0  0.43150  0.05338  0.34557  1.0000
  C   C32       1.0  0.43439  0.01826  0.33751  1.0000
  C   C33       1.0  0.47298  0.02147  0.34290  1.0000
  C   C34       1.0  0.54051  0.13326  0.35174  1.0000
  H   H12       1.0  0.40369  0.05111  0.34396  1.0000
  C   C35       1.0  0.47741  0.98704  0.34543  1.0000
  H   H13       1.0  0.53949  0.15936  0.35406  1.0000
  H   H14       1.0  0.60297  0.16496  0.34603  1.0000
  H   H15       1.0  0.45287  0.95868  0.34593  1.0000
  H   H16       1.0  0.51633  0.96428  0.35399  1.0000
  C   C36       1.0  0.59498  0.99951  0.37159  1.0000
  C   C37       1.0  0.40007  0.98226  0.31566  1.0000
  C   C38       1.0  0.46086  0.12412  0.37172  1.0000
  C   C39       1.0  0.65577  0.14139  0.31575  1.0000
  H   H17       1.0  0.59645  0.99272  0.43519  1.0000
  H   H18       1.0  0.40201  0.96674  0.26459  1.0000
  H   H19       1.0  0.45965  0.13104  0.43535  1.0000
  H   H20       1.0  0.65382  0.15693  0.26474  1.0000
  C   C40       1.0  0.21246  0.50104  0.25603  1.0000
  C   C41       1.0  0.17537  0.50020  0.26601  1.0000
  H   H21       1.0  0.16228  0.50446  0.21070  1.0000
  C   C42       1.0  0.26796  0.49557  0.32955  1.0000
  C   C43       1.0  0.34128  0.49433  0.31741  1.0000
  C   C44       1.0  0.30588  0.46281  0.27911  1.0000
  C   C45       1.0  0.26946  0.46346  0.28687  1.0000
  H   H22       1.0  0.24382  0.44030  0.25957  1.0000
  N   N1        1.0  0.22985  0.50883  0.17366  1.0000
  H   H23       1.0  0.21729  0.51376  0.12237  1.0000
  H   H24       1.0  0.25598  0.51127  0.16367  1.0000
  N   N2        1.0  0.30785  0.43131  0.23468  1.0000
  O   O1        1.0  0.29772  0.42919  0.15416  1.0000
  O   O2        1.0  0.28535  0.39799  0.27138  1.0000
  N   N3        1.0  0.37626  0.49529  0.30841  1.0000
  C   C46       1.0  0.58873  0.80718  0.25600  1.0000
  C   C47       1.0  0.58956  0.77093  0.26598  1.0000
  H   H25       1.0  0.58531  0.75358  0.21067  1.0000
  C   C48       1.0  0.59411  0.86810  0.32956  1.0000
  C   C49       1.0  0.59512  0.94253  0.31723  1.0000
  C   C50       1.0  0.62676  0.93878  0.27917  1.0000
  C   C51       1.0  0.62621  0.90176  0.28697  1.0000
  H   H26       1.0  0.64943  0.89936  0.25984  1.0000
  N   N4        1.0  0.58089  0.81675  0.17366  1.0000
  H   H27       1.0  0.57609  0.79934  0.12230  1.0000
  H   H28       1.0  0.57859  0.84052  0.16359  1.0000
  N   N5        1.0  0.65824  0.97231  0.23489  1.0000
  O   O3        1.0  0.66048  0.96435  0.15439  1.0000
  O   O4        1.0  0.69154  0.98322  0.27179  1.0000
  N   N6        1.0  0.59401  0.97646  0.30820  1.0000
  C   C52       1.0  0.28257  0.87727  0.25591  1.0000
  C   C53       1.0  0.31884  0.91435  0.26591  1.0000
  H   H29       1.0  0.33619  0.92744  0.21060  1.0000
  C   C54       1.0  0.22160  0.82178  0.32942  1.0000
  C   C55       1.0  0.14701  0.74849  0.31734  1.0000
  C   C56       1.0  0.15090  0.78390  0.27906  1.0000
  C   C57       1.0  0.18799  0.82030  0.28676  1.0000
  H   H30       1.0  0.19047  0.84594  0.25950  1.0000
  N   N7        1.0  0.27299  0.85988  0.17355  1.0000
  H   H31       1.0  0.29041  0.87249  0.12220  1.0000
  H   H32       1.0  0.24922  0.83382  0.16348  1.0000
  N   N8        1.0  0.11743  0.78194  0.23470  1.0000
  O   O5        1.0  0.12542  0.79206  0.15416  1.0000
  O   O6        1.0  0.10664  0.80446  0.27143  1.0000
  N   N9        1.0  0.11296  0.71353  0.30846  1.0000
  C   C58       1.0  0.84338  0.62263  0.25602  1.0000
  C   C59       1.0  0.88046  0.62346  0.26601  1.0000
  H   H33       1.0  0.89355  0.61919  0.21071  1.0000
  C   C60       1.0  0.78786  0.62806  0.32954  1.0000
  C   C61       1.0  0.71447  0.62915  0.31728  1.0000
  C   C62       1.0  0.74987  0.66074  0.27913  1.0000
  C   C63       1.0  0.78632  0.66016  0.28693  1.0000
  H   H34       1.0  0.81194  0.68336  0.25973  1.0000
  N   N10       1.0  0.82598  0.61480  0.17367  1.0000
  H   H35       1.0  0.83859  0.60999  0.12232  1.0000
  H   H36       1.0  0.79991  0.61250  0.16360  1.0000
  N   N11       1.0  0.74784  0.69222  0.23478  1.0000
  O   O7        1.0  0.75802  0.69442  0.15427  1.0000
  O   O8        1.0  0.77027  0.72553  0.27159  1.0000
  N   N12       1.0  0.67945  0.62808  0.30823  1.0000
  C   C64       1.0  0.46710  0.31647  0.25605  1.0000
  C   C65       1.0  0.46625  0.35272  0.26603  1.0000
  H   H37       1.0  0.47051  0.37007  0.21071  1.0000
  C   C66       1.0  0.46168  0.25553  0.32960  1.0000
  C   C67       1.0  0.46057  0.18104  0.31740  1.0000
  C   C68       1.0  0.42900  0.18486  0.27916  1.0000
  C   C69       1.0  0.42958  0.22189  0.28696  1.0000
  H   H38       1.0  0.40640  0.22433  0.25969  1.0000
  N   N13       1.0  0.47489  0.30687  0.17369  1.0000
  H   H39       1.0  0.47981  0.32435  0.12239  1.0000
  H   H40       1.0  0.47733  0.28318  0.16370  1.0000
  N   N14       1.0  0.39753  0.15136  0.23476  1.0000
  O   O9        1.0  0.39537  0.15936  0.15424  1.0000
  O   O10       1.0  0.36421  0.14048  0.27150  1.0000
  N   N15       1.0  0.46163  0.14708  0.30834  1.0000
  C   C70       1.0  0.77325  0.24638  0.25600  1.0000
  C   C71       1.0  0.73700  0.20929  0.26599  1.0000
  H   H41       1.0  0.71965  0.19620  0.21067  1.0000
  C   C72       1.0  0.83419  0.30190  0.32952  1.0000
  C   C73       1.0  0.90866  0.37529  0.31721  1.0000
  C   C74       1.0  0.90487  0.33989  0.27911  1.0000
  C   C75       1.0  0.86784  0.30344  0.28691  1.0000
  H   H42       1.0  0.86542  0.27781  0.25976  1.0000
  N   N16       1.0  0.78282  0.26378  0.17365  1.0000
  H   H43       1.0  0.76540  0.25117  0.12229  1.0000
  H   H44       1.0  0.80659  0.28985  0.16358  1.0000
  N   N17       1.0  0.93838  0.34191  0.23480  1.0000
  O   O11       1.0  0.93041  0.33172  0.15431  1.0000
  O   O12       1.0  0.94926  0.31949  0.27168  1.0000
  N   N18       1.0  0.94262  0.41031  0.30818  1.0000
  C   C76       1.0  0.02621  0.57960  0.34704  1.0000
  C   C77       1.0  0.98758  0.57643  0.34302  1.0000
  C   C78       1.0  0.98436  0.61180  0.33763  1.0000
  C   C79       1.0  0.01949  0.64982  0.34569  1.0000
  C   C80       1.0  0.05776  0.65348  0.35436  1.0000
  C   C81       1.0  0.06143  0.61839  0.35100  1.0000
  C   C82       1.0  0.95314  0.53757  0.34556  1.0000
  C   C83       1.0  0.09936  0.62067  0.35177  1.0000
  H   H45       1.0  0.01723  0.67537  0.34405  1.0000
  C   C84       1.0  0.02962  0.54407  0.34700  1.0000
  C   C85       1.0  0.99440  0.50527  0.35086  1.0000
  C   C86       1.0  0.99806  0.47018  0.35412  1.0000
  C   C87       1.0  0.03634  0.47385  0.34559  1.0000
  C   C88       1.0  0.07148  0.51187  0.33761  1.0000
  C   C89       1.0  0.06826  0.54723  0.34303  1.0000
  C   C90       1.0  0.95647  0.50299  0.35167  1.0000
  H   H46       1.0  0.03861  0.44830  0.34390  1.0000
  C   C91       1.0  0.10269  0.58609  0.34563  1.0000
  H   H47       1.0  0.93037  0.47587  0.35385  1.0000
  H   H48       1.0  0.92478  0.53375  0.34588  1.0000
  H   H49       1.0  0.13105  0.58991  0.34605  1.0000
  H   H50       1.0  0.12546  0.64779  0.35410  1.0000
  C   C92       1.0  0.09023  0.69118  0.37193  1.0000
  C   C93       1.0  0.10748  0.51354  0.31577  1.0000
  C   C94       1.0  0.96560  0.43246  0.37158  1.0000
  C   C95       1.0  0.94837  0.61014  0.31577  1.0000
  H   H51       1.0  0.09751  0.69900  0.43557  1.0000
  H   H52       1.0  0.95870  0.42430  0.43519  1.0000
  H   H53       1.0  0.93287  0.59271  0.26466  1.0000
  C   C96       1.0  0.39857  0.49478  0.37183  1.0000
  H   H54       1.0  0.39066  0.49401  0.43549  1.0000
  C   C97       1.0  0.15621  0.49434  0.34996  1.0000
  C   C98       1.0  0.17388  0.48729  0.42566  1.0000
  C   C99       1.0  0.21058  0.48731  0.41624  1.0000
  C   C100      1.0  0.23036  0.49459  0.33289  1.0000
  C   C101      1.0  0.30381  0.52784  0.36653  1.0000
  C   C102      1.0  0.33988  0.52642  0.36008  1.0000
  H   H55       1.0  0.36597  0.54970  0.38537  1.0000
  H   H56       1.0  0.22327  0.48255  0.47179  1.0000
  N   N19       1.0  0.30517  0.56047  0.40600  1.0000
  H   H57       1.0  0.28167  0.56369  0.40950  1.0000
  H   H58       1.0  0.33018  0.58237  0.42983  1.0000
  N   N20       1.0  0.15479  0.48115  0.50978  1.0000
  O   O13       1.0  0.14561  0.44730  0.54146  1.0000
  O   O14       1.0  0.17700  0.50783  0.56478  1.0000
  N   N21       1.0  0.12201  0.49516  0.36075  1.0000
  C   C103      1.0  0.59545  0.75764  0.34991  1.0000
  C   C104      1.0  0.60251  0.78236  0.42561  1.0000
  C   C105      1.0  0.60248  0.81903  0.41621  1.0000
  C   C106      1.0  0.59517  0.83152  0.33287  1.0000
  C   C107      1.0  0.56175  0.87157  0.36639  1.0000
  C   C108      1.0  0.56305  0.90899  0.35982  1.0000
  H   H59       1.0  0.53973  0.91175  0.38506  1.0000
  H   H60       1.0  0.60722  0.83647  0.47176  1.0000
  N   N22       1.0  0.52915  0.84025  0.40580  1.0000
  H   H61       1.0  0.52601  0.81356  0.40940  1.0000
  H   H62       1.0  0.50719  0.84329  0.42953  1.0000
  N   N23       1.0  0.60868  0.76942  0.50971  1.0000
  O   O15       1.0  0.64253  0.79410  0.54136  1.0000
  O   O16       1.0  0.58202  0.76495  0.56476  1.0000
  N   N24       1.0  0.59462  0.72261  0.36069  1.0000
  C   C109      1.0  0.33213  0.93352  0.34985  1.0000
  C   C110      1.0  0.30741  0.91585  0.42555  1.0000
  C   C111      1.0  0.27073  0.87915  0.41612  1.0000
  C   C112      1.0  0.25822  0.85938  0.33276  1.0000
  C   C113      1.0  0.21800  0.78593  0.36641  1.0000
  C   C114      1.0  0.18051  0.74987  0.36000  1.0000
  H   H63       1.0  0.17767  0.72379  0.38535  1.0000
  H   H64       1.0  0.25327  0.86648  0.47165  1.0000
  N   N25       1.0  0.24927  0.78457  0.40592  1.0000
  H   H65       1.0  0.27602  0.80803  0.40915  1.0000
  H   H66       1.0  0.24617  0.75953  0.42953  1.0000
  N   N26       1.0  0.32035  0.93495  0.50966  1.0000
  O   O17       1.0  0.29568  0.94413  0.54132  1.0000
  O   O18       1.0  0.32481  0.91275  0.56468  1.0000
  N   N27       1.0  0.36715  0.96772  0.36064  1.0000
  C   C115      1.0  0.89964  0.62935  0.34995  1.0000
  C   C116      1.0  0.88197  0.63641  0.42565  1.0000
  C   C117      1.0  0.84527  0.63639  0.41623  1.0000
  C   C118      1.0  0.82548  0.62909  0.33288  1.0000
  C   C119      1.0  0.75202  0.59573  0.36644  1.0000
  C   C120      1.0  0.71591  0.59707  0.35993  1.0000
  H   H67       1.0  0.68983  0.57376  0.38515  1.0000
  H   H68       1.0  0.83258  0.64115  0.47177  1.0000
  N   N28       1.0  0.75071  0.56312  0.40586  1.0000
  H   H69       1.0  0.77424  0.55994  0.40942  1.0000
  H   H70       1.0  0.72571  0.54118  0.42964  1.0000
  N   N29       1.0  0.90107  0.64258  0.50975  1.0000
  O   O19       1.0  0.91025  0.67643  0.54140  1.0000
  O   O20       1.0  0.87888  0.61592  0.56479  1.0000
  N   N30       1.0  0.93383  0.62851  0.36075  1.0000
  C   C121      1.0  0.46039  0.36602  0.34997  1.0000
  C   C122      1.0  0.45335  0.34131  0.42568  1.0000
  C   C123      1.0  0.45337  0.30463  0.41627  1.0000
  C   C124      1.0  0.46065  0.29213  0.33292  1.0000
  C   C125      1.0  0.49399  0.25201  0.36654  1.0000
  C   C126      1.0  0.49264  0.21456  0.36006  1.0000
  H   H71       1.0  0.51594  0.21178  0.38531  1.0000
  H   H72       1.0  0.44862  0.28719  0.47182  1.0000
  N   N31       1.0  0.52660  0.28331  0.40598  1.0000
  H   H73       1.0  0.52979  0.31002  0.40951  1.0000
  H   H74       1.0  0.54853  0.28023  0.42978  1.0000
  N   N32       1.0  0.44720  0.35426  0.50979  1.0000
  O   O21       1.0  0.41336  0.32959  0.54148  1.0000
  O   O22       1.0  0.47389  0.35873  0.56479  1.0000
  N   N33       1.0  0.46123  0.40105  0.36076  1.0000
  C   C127      1.0  0.72371  0.19011  0.34992  1.0000
  C   C128      1.0  0.74844  0.20778  0.42562  1.0000
  C   C129      1.0  0.78512  0.24448  0.41619  1.0000
  C   C130      1.0  0.79760  0.26427  0.33286  1.0000
  C   C131      1.0  0.83770  0.33774  0.36638  1.0000
  C   C132      1.0  0.87513  0.37385  0.35982  1.0000
  H   H75       1.0  0.87791  0.39993  0.38508  1.0000
  H   H76       1.0  0.80256  0.25717  0.47174  1.0000
  N   N34       1.0  0.80639  0.33904  0.40582  1.0000
  H   H77       1.0  0.77969  0.31551  0.40940  1.0000
  H   H78       1.0  0.80945  0.36405  0.42956  1.0000
  N   N35       1.0  0.73551  0.18867  0.50972  1.0000
  O   O23       1.0  0.76018  0.17949  0.54135  1.0000
  O   O24       1.0  0.73104  0.21086  0.56476  1.0000
  N   N36       1.0  0.68869  0.15591  0.36071  1.0000
