data_image0
_chemical_formula_structural       C8N2H6N2C8N2H6N2C8N2H6N2C2NHCHC2NHCHC2NHCHC2NHCHC2NHCHC2NHCHC2HNC2NH3N2C2HNC2NH3N2C2HNC2NH3N2C2NOCH3CHC2NOCH3CHC2NOCH3CHC2NOCH3CHC2NOCH3CHC2NOCH3CH
_chemical_formula_sum              "C78 N36 H66 O6"
_cell_length_a       30.8097
_cell_length_b       30.8098
_cell_length_c       15.099
_cell_angle_alpha    90
_cell_angle_beta     90
_cell_angle_gamma    120

_space_group_name_H-M_alt    "P 1"
_space_group_IT_number       1

loop_
  _space_group_symop_operation_xyz
  'x, y, z'

loop_
  _atom_site_type_symbol
  _atom_site_label
  _atom_site_symmetry_multiplicity
  _atom_site_fract_x
  _atom_site_fract_y
  _atom_site_fract_z
  _atom_site_occupancy
  C   C1        1.0  0.96880  0.48018  0.31427  1.0000
  C   C2        1.0  0.86368  0.41667  0.33424  1.0000
  C   C3        1.0  0.89447  0.39684  0.30610  1.0000
  C   C4        1.0  0.94572  0.42931  0.28504  1.0000
  C   C5        1.0  0.02129  0.51311  0.31450  1.0000
  C   C6        1.0  0.04442  0.56399  0.28541  1.0000
  C   C7        1.0  0.09552  0.59654  0.30726  1.0000
  C   C8        1.0  0.12626  0.57674  0.33584  1.0000
  N   N1        1.0  0.97168  0.41176  0.23805  1.0000
  N   N2        1.0  0.01866  0.58150  0.23770  1.0000
  H   H1        1.0  0.00469  0.43451  0.21415  1.0000
  H   H2        1.0  0.95532  0.37788  0.21447  1.0000
  H   H3        1.0  0.03484  0.61553  0.21481  1.0000
  H   H4        1.0  0.98562  0.55884  0.21377  1.0000
  H   H5        1.0  0.19480  0.64078  0.32590  1.0000
  H   H6        1.0  0.79518  0.35260  0.32415  1.0000
  N   N3        1.0  0.11479  0.64654  0.29737  1.0000
  N   N4        1.0  0.87509  0.34683  0.29614  1.0000
  C   C9        1.0  0.51153  0.48698  0.31425  1.0000
  C   C10       1.0  0.57506  0.44540  0.33414  1.0000
  C   C11       1.0  0.59488  0.49605  0.30614  1.0000
  C   C12       1.0  0.56239  0.51479  0.28502  1.0000
  C   C13       1.0  0.47864  0.50658  0.31461  1.0000
  C   C14       1.0  0.42776  0.47890  0.28547  1.0000
  C   C15       1.0  0.39527  0.49752  0.30731  1.0000
  C   C16       1.0  0.41512  0.54804  0.33610  1.0000
  N   N5        1.0  0.57993  0.55832  0.23806  1.0000
  N   N6        1.0  0.41022  0.43566  0.23767  1.0000
  H   H7        1.0  0.55717  0.56856  0.21414  1.0000
  H   H8        1.0  0.61382  0.57585  0.21448  1.0000
  H   H9        1.0  0.37619  0.41786  0.21475  1.0000
  H   H10       1.0  0.43285  0.42523  0.21376  1.0000
  H   H11       1.0  0.35114  0.55265  0.32611  1.0000
  H   H12       1.0  0.63915  0.44102  0.32403  1.0000
  N   N7        1.0  0.34526  0.46687  0.29732  1.0000
  N   N8        1.0  0.64489  0.52679  0.29645  1.0000
  C   C17       1.0  0.50500  0.02295  0.31481  1.0000
  C   C18       1.0  0.54632  0.12790  0.33629  1.0000
  C   C19       1.0  0.49579  0.09717  0.30764  1.0000
  C   C20       1.0  0.47725  0.04608  0.28572  1.0000
  C   C21       1.0  0.48542  0.97046  0.31456  1.0000
  C   C22       1.0  0.51321  0.94740  0.28524  1.0000
  C   C23       1.0  0.49442  0.89614  0.30620  1.0000
  C   C24       1.0  0.44378  0.86533  0.33421  1.0000
  N   N9        1.0  0.43398  0.02032  0.23799  1.0000
  N   N10       1.0  0.55674  0.97337  0.23829  1.0000
  H   H13       1.0  0.42382  0.98739  0.21377  1.0000
  H   H14       1.0  0.41628  0.03658  0.21477  1.0000
  H   H15       1.0  0.57426  0.95703  0.21462  1.0000
  H   H16       1.0  0.56696  0.00639  0.21444  1.0000
  H   H17       1.0  0.43930  0.79682  0.32369  1.0000
  H   H18       1.0  0.55084  0.19644  0.32624  1.0000
  N   N11       1.0  0.52509  0.87680  0.29632  1.0000
  N   N12       1.0  0.46504  0.11641  0.29776  1.0000
  C   C25       1.0  0.19312  0.48076  0.31424  1.0000
  C   C26       1.0  0.22399  0.48123  0.24456  1.0000
  N   N13       1.0  0.25939  0.46851  0.25999  1.0000
  H   H19       1.0  0.22277  0.49447  0.18303  1.0000
  C   C27       1.0  0.16412  0.50367  0.30103  1.0000
  H   H20       1.0  0.16963  0.52417  0.24434  1.0000
  C   C28       1.0  0.51133  0.71079  0.31432  1.0000
  C   C29       1.0  0.51100  0.74113  0.24441  1.0000
  N   N14       1.0  0.52366  0.78925  0.25960  1.0000
  H   H21       1.0  0.49787  0.72661  0.18286  1.0000
  C   C30       1.0  0.48841  0.65887  0.30128  1.0000
  H   H22       1.0  0.46803  0.64386  0.24449  1.0000
  C   C31       1.0  0.28087  0.79863  0.31337  1.0000
  C   C32       1.0  0.25032  0.76776  0.24385  1.0000
  N   N15       1.0  0.20221  0.73239  0.25956  1.0000
  H   H23       1.0  0.26465  0.76893  0.18222  1.0000
  C   C33       1.0  0.33276  0.82756  0.29985  1.0000
  H   H24       1.0  0.34763  0.82200  0.24306  1.0000
  C   C34       1.0  0.79692  0.51280  0.31334  1.0000
  C   C35       1.0  0.76619  0.51258  0.24364  1.0000
  N   N16       1.0  0.73081  0.52531  0.25919  1.0000
  H   H25       1.0  0.76749  0.49953  0.18198  1.0000
  C   C36       1.0  0.82590  0.48988  0.29989  1.0000
  H   H26       1.0  0.82047  0.46957  0.24298  1.0000
  C   C37       1.0  0.47900  0.28247  0.31343  1.0000
  C   C38       1.0  0.47933  0.25189  0.24397  1.0000
  N   N17       1.0  0.46660  0.20379  0.25980  1.0000
  H   H27       1.0  0.49247  0.26618  0.18231  1.0000
  C   C39       1.0  0.50191  0.33434  0.29979  1.0000
  H   H28       1.0  0.52234  0.34919  0.24299  1.0000
  C   C40       1.0  0.70911  0.19469  0.31416  1.0000
  C   C41       1.0  0.73940  0.22544  0.24428  1.0000
  N   N18       1.0  0.78755  0.26087  0.25943  1.0000
  H   H29       1.0  0.72484  0.22412  0.18279  1.0000
  C   C42       1.0  0.65718  0.16564  0.30118  1.0000
  H   H30       1.0  0.64211  0.17109  0.24454  1.0000
  C   C43       1.0  0.93897  0.49809  0.35292  1.0000
  C   C44       1.0  0.88670  0.46873  0.35237  1.0000
  H   H31       1.0  0.95492  0.53482  0.37243  1.0000
  N   N19       1.0  0.81303  0.38720  0.34327  1.0000
  C   C45       1.0  0.10327  0.52467  0.35392  1.0000
  C   C46       1.0  0.05099  0.49525  0.35395  1.0000
  N   N20       1.0  0.17689  0.60621  0.34521  1.0000
  H   H32       1.0  0.03502  0.45844  0.37294  1.0000
  H   H33       1.0  0.19718  0.59370  0.37194  1.0000
  H   H34       1.0  0.79269  0.39970  0.36986  1.0000
  N   N21       1.0  0.12699  0.49772  0.35596  1.0000
  N   N22       1.0  0.86297  0.49566  0.35481  1.0000
  C   C47       1.0  0.49362  0.43924  0.35288  1.0000
  C   C48       1.0  0.52298  0.41633  0.35213  1.0000
  H   H35       1.0  0.45685  0.41844  0.37221  1.0000
  N   N23       1.0  0.60454  0.42424  0.34316  1.0000
  C   C49       1.0  0.46717  0.57702  0.35439  1.0000
  C   C50       1.0  0.49655  0.55413  0.35407  1.0000
  N   N24       1.0  0.38570  0.56925  0.34549  1.0000
  H   H36       1.0  0.53334  0.57485  0.37333  1.0000
  H   H37       1.0  0.39825  0.60205  0.37225  1.0000
  H   H38       1.0  0.59206  0.39139  0.36966  1.0000
  N   N25       1.0  0.49417  0.62769  0.35652  1.0000
  N   N26       1.0  0.49606  0.36567  0.35450  1.0000
  C   C51       1.0  0.55253  0.05262  0.35435  1.0000
  C   C52       1.0  0.57538  0.10490  0.35446  1.0000
  H   H39       1.0  0.57338  0.03665  0.37332  1.0000
  N   N27       1.0  0.56749  0.17853  0.34562  1.0000
  C   C53       1.0  0.41475  0.88834  0.35252  1.0000
  C   C54       1.0  0.43767  0.94061  0.35319  1.0000
  N   N28       1.0  0.42257  0.81466  0.34303  1.0000
  H   H40       1.0  0.41689  0.95660  0.37257  1.0000
  H   H41       1.0  0.38973  0.79429  0.36956  1.0000
  H   H42       1.0  0.60030  0.19883  0.37232  1.0000
  N   N29       1.0  0.36408  0.86468  0.35467  1.0000
  N   N30       1.0  0.62605  0.12861  0.35635  1.0000
  C   C55       1.0  0.19788  0.46188  0.39713  1.0000
  C   C56       1.0  0.26564  0.45366  0.34126  1.0000
  N   N31       1.0  0.23494  0.45070  0.40823  1.0000
  O   O1        1.0  0.17003  0.45915  0.46984  1.0000
  C   C57       1.0  0.19619  0.49939  0.53207  1.0000
  H   H43       1.0  0.22844  0.49871  0.56062  1.0000
  H   H44       1.0  0.17045  0.49455  0.58567  1.0000
  H   H45       1.0  0.20859  0.53587  0.50140  1.0000
  C   C58       1.0  0.31073  0.45553  0.36169  1.0000
  H   H46       1.0  0.32213  0.46215  0.42650  1.0000
  C   C59       1.0  0.53006  0.73450  0.39722  1.0000
  C   C60       1.0  0.53834  0.81041  0.34086  1.0000
  N   N32       1.0  0.54119  0.78274  0.40807  1.0000
  O   O2        1.0  0.53268  0.70945  0.47012  1.0000
  C   C61       1.0  0.49238  0.69546  0.53217  1.0000
  H   H47       1.0  0.49305  0.72843  0.56050  1.0000
  H   H48       1.0  0.49713  0.67459  0.58592  1.0000
  H   H49       1.0  0.45592  0.67137  0.50139  1.0000
  C   C62       1.0  0.53626  0.85357  0.36085  1.0000
  H   H50       1.0  0.52968  0.85845  0.42565  1.0000
  C   C63       1.0  0.25741  0.79394  0.39643  1.0000
  C   C64       1.0  0.18129  0.72619  0.34098  1.0000
  N   N33       1.0  0.20919  0.75691  0.40781  1.0000
  O   O3        1.0  0.28269  0.82182  0.46902  1.0000
  C   C65       1.0  0.29684  0.79566  0.53112  1.0000
  H   H51       1.0  0.26395  0.76345  0.55984  1.0000
  H   H52       1.0  0.31786  0.82143  0.58461  1.0000
  H   H53       1.0  0.32084  0.78321  0.50026  1.0000
  C   C66       1.0  0.13811  0.68111  0.36164  1.0000
  H   H54       1.0  0.13349  0.66973  0.42645  1.0000
  C   C67       1.0  0.79207  0.53144  0.39641  1.0000
  C   C68       1.0  0.72445  0.53992  0.34060  1.0000
  N   N34       1.0  0.75502  0.54263  0.40761  1.0000
  O   O4        1.0  0.81981  0.53394  0.46913  1.0000
  C   C69       1.0  0.79353  0.49354  0.53103  1.0000
  H   H55       1.0  0.76127  0.49419  0.55959  1.0000
  H   H56       1.0  0.81920  0.49821  0.58465  1.0000
  H   H57       1.0  0.78113  0.45714  0.50004  1.0000
  C   C70       1.0  0.67932  0.53800  0.36098  1.0000
  H   H58       1.0  0.66780  0.53116  0.42571  1.0000
  C   C71       1.0  0.46025  0.25906  0.39653  1.0000
  C   C72       1.0  0.45189  0.18292  0.34125  1.0000
  N   N35       1.0  0.44908  0.21085  0.40802  1.0000
  O   O5        1.0  0.45765  0.28438  0.46906  1.0000
  C   C73       1.0  0.49799  0.29859  0.53114  1.0000
  H   H59       1.0  0.49733  0.26573  0.55993  1.0000
  H   H60       1.0  0.49325  0.31965  0.58459  1.0000
  H   H61       1.0  0.53443  0.32258  0.50024  1.0000
  C   C74       1.0  0.45381  0.13976  0.36200  1.0000
  H   H62       1.0  0.46061  0.13520  0.42681  1.0000
  C   C75       1.0  0.73288  0.19959  0.39696  1.0000
  C   C76       1.0  0.80878  0.26726  0.34060  1.0000
  N   N36       1.0  0.78114  0.23667  0.40778  1.0000
  O   O6        1.0  0.70787  0.17185  0.46984  1.0000
  C   C77       1.0  0.69387  0.19810  0.53202  1.0000
  H   H63       1.0  0.72684  0.23040  0.56036  1.0000
  H   H64       1.0  0.67305  0.17243  0.58576  1.0000
  H   H65       1.0  0.66973  0.21043  0.50137  1.0000
  C   C78       1.0  0.85205  0.31239  0.36071  1.0000
  H   H66       1.0  0.85695  0.32388  0.42547  1.0000
