data_image0
_chemical_formula_structural       C4NC4NH4N2C4NC4NH4N2C4NC4NH4N3C2HCHNC2HCHNC2HCHNC2HCHNC2HCHNC2HCHC2HC2H3N2C2HC2H3N2C2HC2H3N2CNCNH2CHCNCNH2CHCNCNH2CHCNCNH2CHCNCNH2CHCNCNH2CH
_chemical_formula_sum              "C72 N36 H54"
_cell_length_a       31.4813
_cell_length_b       31.4813
_cell_length_c       15.0083
_cell_angle_alpha    90
_cell_angle_beta     90
_cell_angle_gamma    120

_space_group_name_H-M_alt    "P 1"
_space_group_IT_number       1

loop_
  _space_group_symop_operation_xyz
  'x, y, z'

loop_
  _atom_site_type_symbol
  _atom_site_label
  _atom_site_symmetry_multiplicity
  _atom_site_fract_x
  _atom_site_fract_y
  _atom_site_fract_z
  _atom_site_occupancy
  C   C1        1.0  0.97332  0.48610  0.32789  1.0000
  C   C2        1.0  0.86751  0.43128  0.32954  1.0000
  C   C3        1.0  0.89520  0.40716  0.34046  1.0000
  C   C4        1.0  0.94673  0.43494  0.34603  1.0000
  N   N1        1.0  0.81746  0.40543  0.32963  1.0000
  C   C5        1.0  0.02583  0.51338  0.32785  1.0000
  C   C6        1.0  0.05242  0.56454  0.34600  1.0000
  C   C7        1.0  0.10394  0.59232  0.34040  1.0000
  C   C8        1.0  0.13164  0.56821  0.32945  1.0000
  N   N2        1.0  0.18169  0.59408  0.32952  1.0000
  H   H1        1.0  0.20011  0.62862  0.34445  1.0000
  H   H2        1.0  0.79902  0.37090  0.34466  1.0000
  H   H3        1.0  0.96482  0.41643  0.36056  1.0000
  H   H4        1.0  0.03432  0.58304  0.36059  1.0000
  N   N3        1.0  0.12471  0.64179  0.34575  1.0000
  N   N4        1.0  0.87442  0.35768  0.34579  1.0000
  C   C9        1.0  0.51317  0.48708  0.32788  1.0000
  C   C10       1.0  0.56793  0.43604  0.32955  1.0000
  C   C11       1.0  0.59207  0.48785  0.34049  1.0000
  C   C12       1.0  0.56431  0.51162  0.34614  1.0000
  N   N5        1.0  0.59377  0.41183  0.32964  1.0000
  C   C13       1.0  0.48592  0.51234  0.32787  1.0000
  C   C14       1.0  0.43476  0.48780  0.34604  1.0000
  C   C15       1.0  0.40701  0.51157  0.34039  1.0000
  C   C16       1.0  0.43116  0.56339  0.32955  1.0000
  N   N6        1.0  0.40532  0.58761  0.32963  1.0000
  H   H5        1.0  0.37077  0.57149  0.34451  1.0000
  H   H6        1.0  0.62831  0.42793  0.34463  1.0000
  H   H7        1.0  0.58284  0.54823  0.36063  1.0000
  H   H8        1.0  0.41622  0.45118  0.36047  1.0000
  N   N7        1.0  0.35753  0.48289  0.34566  1.0000
  N   N8        1.0  0.64155  0.51653  0.34585  1.0000
  C   C17       1.0  0.51223  0.02596  0.32781  1.0000
  C   C18       1.0  0.56329  0.13178  0.32933  1.0000
  C   C19       1.0  0.51148  0.10412  0.34026  1.0000
  C   C20       1.0  0.48769  0.05259  0.34588  1.0000
  N   N9        1.0  0.58752  0.18183  0.32943  1.0000
  C   C21       1.0  0.48697  0.97345  0.32791  1.0000
  C   C22       1.0  0.51152  0.94685  0.34614  1.0000
  C   C23       1.0  0.48776  0.89532  0.34045  1.0000
  C   C24       1.0  0.43595  0.86763  0.32951  1.0000
  N   N10       1.0  0.41176  0.81758  0.32950  1.0000
  H   H9        1.0  0.42786  0.79915  0.34460  1.0000
  H   H10       1.0  0.57145  0.20027  0.34455  1.0000
  H   H11       1.0  0.45110  0.03452  0.36048  1.0000
  H   H12       1.0  0.54813  0.96493  0.36057  1.0000
  N   N11       1.0  0.51647  0.87455  0.34573  1.0000
  N   N12       1.0  0.48281  0.12493  0.34556  1.0000
  N   N13       1.0  0.20465  0.47263  0.27480  1.0000
  C   C25       1.0  0.24379  0.46941  0.24633  1.0000
  C   C26       1.0  0.27783  0.47146  0.30965  1.0000
  H   H13       1.0  0.24983  0.46930  0.17943  1.0000
  C   C27       1.0  0.32489  0.48140  0.28522  1.0000
  H   H14       1.0  0.33709  0.49477  0.22242  1.0000
  N   N14       1.0  0.52675  0.73192  0.27511  1.0000
  C   C28       1.0  0.52998  0.77428  0.24664  1.0000
  C   C29       1.0  0.52793  0.80626  0.31000  1.0000
  H   H15       1.0  0.52984  0.78029  0.17973  1.0000
  C   C30       1.0  0.51793  0.84332  0.28542  1.0000
  H   H16       1.0  0.50458  0.84220  0.22262  1.0000
  N   N15       1.0  0.26730  0.79470  0.27500  1.0000
  C   C31       1.0  0.22489  0.75565  0.24652  1.0000
  C   C32       1.0  0.19292  0.72157  0.30983  1.0000
  H   H17       1.0  0.21888  0.74948  0.17961  1.0000
  C   C33       1.0  0.15584  0.67448  0.28536  1.0000
  H   H18       1.0  0.15704  0.66232  0.22253  1.0000
  N   N16       1.0  0.79450  0.52694  0.27492  1.0000
  C   C34       1.0  0.75535  0.53014  0.24650  1.0000
  C   C35       1.0  0.72131  0.52802  0.30989  1.0000
  H   H19       1.0  0.74928  0.53024  0.17961  1.0000
  C   C36       1.0  0.67422  0.51801  0.28550  1.0000
  H   H20       1.0  0.66205  0.50477  0.22262  1.0000
  N   N17       1.0  0.47243  0.26751  0.27483  1.0000
  C   C37       1.0  0.46930  0.22520  0.24634  1.0000
  C   C38       1.0  0.47138  0.19324  0.30970  1.0000
  H   H21       1.0  0.46925  0.21907  0.17945  1.0000
  C   C39       1.0  0.48137  0.15615  0.28522  1.0000
  H   H22       1.0  0.49470  0.15724  0.22242  1.0000
  N   N18       1.0  0.73184  0.20472  0.27500  1.0000
  C   C40       1.0  0.77419  0.24387  0.24660  1.0000
  C   C41       1.0  0.80613  0.27789  0.31001  1.0000
  H   H23       1.0  0.78021  0.25005  0.17969  1.0000
  C   C42       1.0  0.84316  0.32500  0.28553  1.0000
  H   H24       1.0  0.84208  0.33718  0.22266  1.0000
  C   C43       1.0  0.94476  0.50871  0.31084  1.0000
  C   C44       1.0  0.89324  0.48314  0.31840  1.0000
  H   H25       1.0  0.96146  0.54535  0.29696  1.0000
  C   C45       1.0  0.10592  0.51636  0.31827  1.0000
  C   C46       1.0  0.05439  0.49078  0.31070  1.0000
  H   H26       1.0  0.03769  0.45412  0.29699  1.0000
  H   H27       1.0  0.20111  0.57928  0.31261  1.0000
  H   H28       1.0  0.79804  0.42024  0.31272  1.0000
  N   N19       1.0  0.12769  0.48844  0.31978  1.0000
  N   N20       1.0  0.87147  0.51106  0.31982  1.0000
  C   C47       1.0  0.49054  0.43592  0.31072  1.0000
  C   C48       1.0  0.51609  0.40995  0.31836  1.0000
  H   H29       1.0  0.45389  0.41599  0.29694  1.0000
  C   C49       1.0  0.48301  0.58949  0.31846  1.0000
  C   C50       1.0  0.50855  0.56351  0.31078  1.0000
  H   H30       1.0  0.54521  0.58344  0.29706  1.0000
  H   H31       1.0  0.42016  0.62184  0.31282  1.0000
  H   H32       1.0  0.57896  0.37761  0.31275  1.0000
  N   N21       1.0  0.51096  0.63918  0.31994  1.0000
  N   N22       1.0  0.48815  0.36025  0.31980  1.0000
  C   C51       1.0  0.56339  0.05448  0.31063  1.0000
  C   C52       1.0  0.58937  0.10601  0.31813  1.0000
  H   H33       1.0  0.58332  0.03776  0.29693  1.0000
  C   C53       1.0  0.40984  0.89337  0.31837  1.0000
  C   C54       1.0  0.43579  0.94490  0.31087  1.0000
  H   H34       1.0  0.41587  0.96161  0.29702  1.0000
  H   H35       1.0  0.37753  0.79817  0.31265  1.0000
  H   H36       1.0  0.62176  0.20123  0.31267  1.0000
  N   N23       1.0  0.36014  0.87162  0.31987  1.0000
  N   N24       1.0  0.63907  0.12773  0.31970  1.0000
  C   C55       1.0  0.19546  0.47668  0.36203  1.0000
  N   N25       1.0  0.26766  0.47358  0.39693  1.0000
  C   C56       1.0  0.22799  0.47579  0.42684  1.0000
  N   N26       1.0  0.22348  0.47848  0.51616  1.0000
  H   H37       1.0  0.19501  0.47783  0.54255  1.0000
  H   H38       1.0  0.24707  0.47728  0.55649  1.0000
  C   C57       1.0  0.16092  0.49131  0.38038  1.0000
  H   H39       1.0  0.16391  0.50932  0.43886  1.0000
  C   C58       1.0  0.52284  0.71875  0.36236  1.0000
  N   N27       1.0  0.52593  0.79403  0.39728  1.0000
  C   C59       1.0  0.52379  0.75219  0.42718  1.0000
  N   N28       1.0  0.52120  0.74500  0.51650  1.0000
  H   H40       1.0  0.52171  0.71712  0.54289  1.0000
  H   H41       1.0  0.52227  0.76972  0.55685  1.0000
  C   C60       1.0  0.50812  0.66954  0.38058  1.0000
  H   H42       1.0  0.49014  0.65454  0.43909  1.0000
  C   C61       1.0  0.28052  0.80391  0.36223  1.0000
  N   N29       1.0  0.20523  0.73174  0.39711  1.0000
  C   C62       1.0  0.24709  0.77140  0.42704  1.0000
  N   N30       1.0  0.25434  0.77589  0.51634  1.0000
  H   H43       1.0  0.28225  0.80424  0.54277  1.0000
  H   H44       1.0  0.22963  0.75221  0.55668  1.0000
  C   C63       1.0  0.32977  0.83831  0.38036  1.0000
  H   H45       1.0  0.34477  0.83537  0.43891  1.0000
  C   C64       1.0  0.80372  0.52288  0.36213  1.0000
  N   N31       1.0  0.73150  0.52592  0.39716  1.0000
  C   C65       1.0  0.77122  0.52378  0.42700  1.0000
  N   N32       1.0  0.77574  0.52101  0.51630  1.0000
  H   H46       1.0  0.80441  0.52205  0.54261  1.0000
  H   H47       1.0  0.75232  0.52252  0.55664  1.0000
  C   C66       1.0  0.83821  0.50817  0.38037  1.0000
  H   H48       1.0  0.83532  0.49028  0.43896  1.0000
  C   C67       1.0  0.47641  0.28073  0.36207  1.0000
  N   N33       1.0  0.47340  0.20547  0.39698  1.0000
  C   C68       1.0  0.47552  0.24730  0.42688  1.0000
  N   N34       1.0  0.47813  0.25448  0.51621  1.0000
  H   H49       1.0  0.47741  0.28225  0.54259  1.0000
  H   H50       1.0  0.47694  0.22969  0.55654  1.0000
  C   C69       1.0  0.49098  0.32988  0.38044  1.0000
  H   H51       1.0  0.50896  0.34488  0.43896  1.0000
  C   C70       1.0  0.71863  0.19541  0.36223  1.0000
  N   N35       1.0  0.79387  0.26762  0.39727  1.0000
  C   C71       1.0  0.75204  0.22789  0.42710  1.0000
  N   N36       1.0  0.74482  0.22326  0.51642  1.0000
  H   H52       1.0  0.71694  0.19484  0.54276  1.0000
  H   H53       1.0  0.76951  0.24691  0.55681  1.0000
  C   C72       1.0  0.66941  0.16090  0.38040  1.0000
  H   H54       1.0  0.65438  0.16385  0.43889  1.0000
