data_image0
_chemical_formula_structural       C2NC2NCHN2CNCNCNCN2CHCNC3NC2NC2NCHN2CNCNCNCN2CHCNC3N2CHC3NCN2CHC3NCNCN3CNCN3CNC2NC2NC2NC2N2CHCNC2NC2NCNCHNCHC2NC2NC2NC2NC2NC2N2CHCNC2NC2NCNCHNCHC2NC2NC2NC2NC2NC2NC2NC2N2CHNCHNCHCNCNCNCNCNCNCNCNCNCNCNCN2CHNCHNCHC2NC2NC2NC2NC2NC2NC2NC2NC2NC2NC2NC2N2CHNCHNCHCNCNCNCNCNCNCNCNCNCNCNCN2CHNCHNCHC2NC2NC2NC2NC2NC2N
_chemical_formula_sum              "C168 N120 H24"
_cell_length_a       44.334
_cell_length_b       44.3386
_cell_length_c       14.7283
_cell_angle_alpha    90
_cell_angle_beta     90
_cell_angle_gamma    120.01

_space_group_name_H-M_alt    "P 1"
_space_group_IT_number       1

loop_
  _space_group_symop_operation_xyz
  'x, y, z'

loop_
  _atom_site_type_symbol
  _atom_site_label
  _atom_site_symmetry_multiplicity
  _atom_site_fract_x
  _atom_site_fract_y
  _atom_site_fract_z
  _atom_site_occupancy
  C   C1        1.0  0.08350  0.04402  0.34974  1.0000
  C   C2        1.0  0.15629  0.08032  0.35277  1.0000
  N   N1        1.0  0.13838  0.07122  0.27313  1.0000
  C   C3        1.0  0.10299  0.05358  0.26793  1.0000
  C   C4        1.0  0.08894  0.04650  0.18753  1.0000
  N   N2        1.0  0.07640  0.04022  0.11676  1.0000
  C   C5        1.0  0.28419  0.08275  0.26924  1.0000
  H   H1        1.0  0.27622  0.08668  0.20742  1.0000
  N   N3        1.0  0.28355  0.20346  0.27496  1.0000
  N   N4        1.0  0.02890  0.04322  0.35291  1.0000
  C   C6        1.0  0.04679  0.02570  0.35350  1.0000
  N   N5        1.0  0.02884  0.49028  0.35293  1.0000
  C   C7        1.0  0.24623  0.15183  0.35158  1.0000
  N   N6        1.0  0.21081  0.13411  0.35287  1.0000
  C   C8        1.0  0.19290  0.09856  0.35200  1.0000
  N   N7        1.0  0.21067  0.08078  0.35052  1.0000
  C   C9        1.0  0.24610  0.09836  0.34954  1.0000
  N   N8        1.0  0.26322  0.13360  0.35045  1.0000
  N   N9        1.0  0.10151  0.05318  0.42930  1.0000
  C   C10       1.0  0.13688  0.07084  0.43402  1.0000
  H   H2        1.0  0.14884  0.07693  0.49603  1.0000
  C   C11       1.0  0.26715  0.08298  0.34997  1.0000
  N   N10       1.0  0.28315  0.08392  0.42950  1.0000
  C   C12       1.0  0.26750  0.18836  0.35456  1.0000
  C   C13       1.0  0.28426  0.20604  0.43576  1.0000
  C   C14       1.0  0.27455  0.19264  0.51646  1.0000
  N   N11       1.0  0.26601  0.18066  0.58748  1.0000
  C   C15       1.0  0.08350  0.54402  0.34974  1.0000
  C   C16       1.0  0.15629  0.58032  0.35277  1.0000
  N   N12       1.0  0.13838  0.57122  0.27313  1.0000
  C   C17       1.0  0.10299  0.55358  0.26793  1.0000
  C   C18       1.0  0.08894  0.54650  0.18753  1.0000
  N   N13       1.0  0.07640  0.54022  0.11676  1.0000
  C   C19       1.0  0.28419  0.58276  0.26924  1.0000
  H   H3        1.0  0.27622  0.58668  0.20742  1.0000
  N   N14       1.0  0.28355  0.70347  0.27496  1.0000
  N   N15       1.0  0.02890  0.54322  0.35291  1.0000
  C   C20       1.0  0.04679  0.52570  0.35350  1.0000
  N   N16       1.0  0.02884  0.99028  0.35293  1.0000
  C   C21       1.0  0.24623  0.65183  0.35158  1.0000
  N   N17       1.0  0.21081  0.63411  0.35287  1.0000
  C   C22       1.0  0.19290  0.59856  0.35200  1.0000
  N   N18       1.0  0.21067  0.58078  0.35052  1.0000
  C   C23       1.0  0.24609  0.59836  0.34954  1.0000
  N   N19       1.0  0.26322  0.63360  0.35045  1.0000
  N   N20       1.0  0.10151  0.55318  0.42930  1.0000
  C   C24       1.0  0.13688  0.57084  0.43402  1.0000
  H   H4        1.0  0.14884  0.57693  0.49603  1.0000
  C   C25       1.0  0.26715  0.58298  0.34997  1.0000
  N   N21       1.0  0.28315  0.58392  0.42950  1.0000
  C   C26       1.0  0.26750  0.68836  0.35456  1.0000
  C   C27       1.0  0.28426  0.70604  0.43576  1.0000
  C   C28       1.0  0.27455  0.69264  0.51646  1.0000
  N   N22       1.0  0.26601  0.68065  0.58748  1.0000
  N   N23       1.0  0.31574  0.08483  0.27546  1.0000
  C   C29       1.0  0.31302  0.23501  0.26876  1.0000
  H   H5        1.0  0.32478  0.24305  0.20679  1.0000
  C   C30       1.0  0.33083  0.08370  0.35492  1.0000
  C   C31       1.0  0.31307  0.08265  0.43607  1.0000
  C   C32       1.0  0.32645  0.08625  0.51677  1.0000
  N   N24       1.0  0.33843  0.08962  0.58778  1.0000
  C   C33       1.0  0.33032  0.25203  0.34940  1.0000
  N   N25       1.0  0.31542  0.23601  0.42909  1.0000
  N   N26       1.0  0.31574  0.58483  0.27546  1.0000
  C   C34       1.0  0.31302  0.73501  0.26876  1.0000
  H   H6        1.0  0.32478  0.74305  0.20679  1.0000
  C   C35       1.0  0.33083  0.58370  0.35492  1.0000
  C   C36       1.0  0.31307  0.58264  0.43607  1.0000
  C   C37       1.0  0.32645  0.58625  0.51677  1.0000
  N   N27       1.0  0.33843  0.58962  0.58778  1.0000
  C   C38       1.0  0.33032  0.75203  0.34940  1.0000
  N   N28       1.0  0.31542  0.73601  0.42909  1.0000
  C   C39       1.0  0.36735  0.09900  0.35177  1.0000
  N   N29       1.0  0.38509  0.08132  0.35307  1.0000
  N   N30       1.0  0.38557  0.13423  0.35048  1.0000
  N   N31       1.0  0.38460  0.30851  0.35037  1.0000
  C   C40       1.0  0.36676  0.27308  0.34948  1.0000
  N   N32       1.0  0.38489  0.25598  0.35050  1.0000
  C   C41       1.0  0.36735  0.59900  0.35177  1.0000
  N   N33       1.0  0.38509  0.58132  0.35307  1.0000
  N   N34       1.0  0.38557  0.63423  0.35048  1.0000
  N   N35       1.0  0.38460  0.80851  0.35037  1.0000
  C   C42       1.0  0.36677  0.77308  0.34948  1.0000
  N   N36       1.0  0.38489  0.75597  0.35050  1.0000
  C   C43       1.0  0.47516  0.04413  0.34972  1.0000
  C   C44       1.0  0.43889  0.08064  0.35278  1.0000
  N   N37       1.0  0.44800  0.07184  0.27313  1.0000
  C   C45       1.0  0.46563  0.05409  0.26792  1.0000
  C   C46       1.0  0.47271  0.04713  0.18752  1.0000
  N   N38       1.0  0.47899  0.04087  0.11674  1.0000
  C   C47       1.0  0.47503  0.43568  0.34975  1.0000
  C   C48       1.0  0.43852  0.36290  0.35282  1.0000
  N   N39       1.0  0.44732  0.38080  0.27317  1.0000
  C   C49       1.0  0.46508  0.41618  0.26795  1.0000
  C   C50       1.0  0.47205  0.43023  0.18754  1.0000
  N   N40       1.0  0.47831  0.44276  0.11676  1.0000
  N   N41       1.0  0.43432  0.23560  0.27540  1.0000
  C   C51       1.0  0.43635  0.20611  0.26916  1.0000
  H   H7        1.0  0.43255  0.19435  0.20717  1.0000
  C   C52       1.0  0.49342  0.47239  0.35350  1.0000
  N   N42       1.0  0.47594  0.49033  0.35292  1.0000
  C   C53       1.0  0.49348  0.02575  0.35349  1.0000
  C   C54       1.0  0.42064  0.09899  0.35202  1.0000
  N   N43       1.0  0.43841  0.13454  0.35039  1.0000
  C   C55       1.0  0.42082  0.15236  0.34942  1.0000
  C   C56       1.0  0.42013  0.27299  0.35183  1.0000
  N   N44       1.0  0.43782  0.30841  0.35314  1.0000
  C   C57       1.0  0.42015  0.32629  0.35207  1.0000
  N   N45       1.0  0.46598  0.05296  0.42930  1.0000
  C   C58       1.0  0.44833  0.07066  0.43403  1.0000
  H   H8        1.0  0.44222  0.07651  0.49604  1.0000
  N   N46       1.0  0.46619  0.41768  0.42932  1.0000
  C   C59       1.0  0.44848  0.38232  0.43406  1.0000
  H   H9        1.0  0.44262  0.37036  0.49608  1.0000
  C   C60       1.0  0.43543  0.25177  0.35491  1.0000
  C   C61       1.0  0.43617  0.18878  0.34971  1.0000
  N   N47       1.0  0.43520  0.20385  0.42926  1.0000
  C   C62       1.0  0.43646  0.23503  0.43599  1.0000
  C   C63       1.0  0.43284  0.24476  0.51673  1.0000
  N   N48       1.0  0.42946  0.25332  0.58779  1.0000
  C   C64       1.0  0.47516  0.54413  0.34972  1.0000
  C   C65       1.0  0.43889  0.58064  0.35278  1.0000
  N   N49       1.0  0.44800  0.57184  0.27313  1.0000
  C   C66       1.0  0.46563  0.55409  0.26792  1.0000
  C   C67       1.0  0.47271  0.54713  0.18752  1.0000
  N   N50       1.0  0.47899  0.54087  0.11674  1.0000
  C   C68       1.0  0.47503  0.93568  0.34975  1.0000
  C   C69       1.0  0.43851  0.86290  0.35282  1.0000
  N   N51       1.0  0.44732  0.88080  0.27317  1.0000
  C   C70       1.0  0.46507  0.91618  0.26795  1.0000
  C   C71       1.0  0.47205  0.93023  0.18754  1.0000
  N   N52       1.0  0.47832  0.94276  0.11676  1.0000
  N   N53       1.0  0.43432  0.73560  0.27540  1.0000
  C   C72       1.0  0.43635  0.70611  0.26916  1.0000
  H   H10       1.0  0.43255  0.69435  0.20717  1.0000
  C   C73       1.0  0.49342  0.97239  0.35350  1.0000
  N   N54       1.0  0.47594  0.99033  0.35292  1.0000
  C   C74       1.0  0.49348  0.52574  0.35349  1.0000
  C   C75       1.0  0.42064  0.59899  0.35202  1.0000
  N   N55       1.0  0.43841  0.63454  0.35039  1.0000
  C   C76       1.0  0.42082  0.65236  0.34942  1.0000
  C   C77       1.0  0.42013  0.77299  0.35183  1.0000
  N   N56       1.0  0.43782  0.80841  0.35314  1.0000
  C   C78       1.0  0.42015  0.82629  0.35207  1.0000
  N   N57       1.0  0.46598  0.55296  0.42930  1.0000
  C   C79       1.0  0.44833  0.57066  0.43403  1.0000
  H   H11       1.0  0.44222  0.57651  0.49604  1.0000
  N   N58       1.0  0.46619  0.91768  0.42932  1.0000
  C   C80       1.0  0.44848  0.88232  0.43406  1.0000
  H   H12       1.0  0.44262  0.87036  0.49608  1.0000
  C   C81       1.0  0.43543  0.75177  0.35491  1.0000
  C   C82       1.0  0.43617  0.68878  0.34971  1.0000
  N   N59       1.0  0.43520  0.70385  0.42926  1.0000
  C   C83       1.0  0.43646  0.73503  0.43599  1.0000
  C   C84       1.0  0.43284  0.74476  0.51673  1.0000
  N   N60       1.0  0.42946  0.75331  0.58779  1.0000
  C   C85       1.0  0.58350  0.04402  0.34974  1.0000
  C   C86       1.0  0.65629  0.08032  0.35277  1.0000
  N   N61       1.0  0.63838  0.07122  0.27313  1.0000
  C   C87       1.0  0.60299  0.05358  0.26793  1.0000
  C   C88       1.0  0.58894  0.04650  0.18753  1.0000
  N   N62       1.0  0.57639  0.04022  0.11676  1.0000
  C   C89       1.0  0.97516  0.04413  0.34972  1.0000
  C   C90       1.0  0.93889  0.08064  0.35278  1.0000
  N   N63       1.0  0.94799  0.07184  0.27313  1.0000
  C   C91       1.0  0.96563  0.05409  0.26792  1.0000
  C   C92       1.0  0.97271  0.04713  0.18752  1.0000
  N   N64       1.0  0.97899  0.04087  0.11674  1.0000
  C   C93       1.0  0.97503  0.43568  0.34975  1.0000
  C   C94       1.0  0.93851  0.36290  0.35282  1.0000
  N   N65       1.0  0.94732  0.38080  0.27317  1.0000
  C   C95       1.0  0.96507  0.41618  0.26795  1.0000
  C   C96       1.0  0.97205  0.43023  0.18754  1.0000
  N   N66       1.0  0.97832  0.44276  0.11676  1.0000
  N   N67       1.0  0.81573  0.08483  0.27546  1.0000
  C   C97       1.0  0.78419  0.08275  0.26924  1.0000
  H   H13       1.0  0.77622  0.08668  0.20742  1.0000
  N   N68       1.0  0.93432  0.23560  0.27540  1.0000
  C   C98       1.0  0.93635  0.20611  0.26916  1.0000
  H   H14       1.0  0.93255  0.19435  0.20717  1.0000
  N   N69       1.0  0.78355  0.20346  0.27496  1.0000
  C   C99       1.0  0.81302  0.23501  0.26876  1.0000
  H   H15       1.0  0.82478  0.24305  0.20679  1.0000
  C   C100      1.0  0.99342  0.47239  0.35350  1.0000
  N   N70       1.0  0.97594  0.49033  0.35292  1.0000
  C   C101      1.0  0.99347  0.02575  0.35349  1.0000
  N   N71       1.0  0.52890  0.04322  0.35291  1.0000
  C   C102      1.0  0.54679  0.02570  0.35350  1.0000
  N   N72       1.0  0.52884  0.49028  0.35293  1.0000
  C   C103      1.0  0.74623  0.15183  0.35158  1.0000
  N   N73       1.0  0.71081  0.13411  0.35287  1.0000
  C   C104      1.0  0.69290  0.09856  0.35200  1.0000
  N   N74       1.0  0.71067  0.08078  0.35052  1.0000
  C   C105      1.0  0.74609  0.09836  0.34954  1.0000
  N   N75       1.0  0.76322  0.13360  0.35045  1.0000
  C   C106      1.0  0.86735  0.09900  0.35177  1.0000
  N   N76       1.0  0.88509  0.08132  0.35307  1.0000
  C   C107      1.0  0.92064  0.09899  0.35202  1.0000
  N   N77       1.0  0.93841  0.13454  0.35039  1.0000
  C   C108      1.0  0.92082  0.15236  0.34942  1.0000
  N   N78       1.0  0.88557  0.13423  0.35048  1.0000
  C   C109      1.0  0.92013  0.27299  0.35183  1.0000
  N   N79       1.0  0.93782  0.30841  0.35314  1.0000
  C   C110      1.0  0.92015  0.32629  0.35207  1.0000
  N   N80       1.0  0.88460  0.30851  0.35037  1.0000
  C   C111      1.0  0.86676  0.27308  0.34948  1.0000
  N   N81       1.0  0.88489  0.25598  0.35050  1.0000
  N   N82       1.0  0.60151  0.05318  0.42930  1.0000
  C   C112      1.0  0.63687  0.07084  0.43402  1.0000
  H   H16       1.0  0.64884  0.07693  0.49603  1.0000
  N   N83       1.0  0.96598  0.05296  0.42930  1.0000
  C   C113      1.0  0.94833  0.07066  0.43403  1.0000
  H   H17       1.0  0.94222  0.07651  0.49604  1.0000
  N   N84       1.0  0.96619  0.41768  0.42932  1.0000
  C   C114      1.0  0.94848  0.38232  0.43406  1.0000
  H   H18       1.0  0.94262  0.37036  0.49608  1.0000
  C   C115      1.0  0.83083  0.08370  0.35492  1.0000
  C   C116      1.0  0.76714  0.08298  0.34997  1.0000
  N   N85       1.0  0.78315  0.08392  0.42950  1.0000
  C   C117      1.0  0.81307  0.08265  0.43607  1.0000
  C   C118      1.0  0.82645  0.08625  0.51677  1.0000
  N   N86       1.0  0.83843  0.08962  0.58778  1.0000
  C   C119      1.0  0.93542  0.25177  0.35491  1.0000
  C   C120      1.0  0.93617  0.18878  0.34971  1.0000
  N   N87       1.0  0.93520  0.20385  0.42926  1.0000
  C   C121      1.0  0.93646  0.23503  0.43599  1.0000
  C   C122      1.0  0.93284  0.24476  0.51673  1.0000
  N   N88       1.0  0.92946  0.25332  0.58779  1.0000
  C   C123      1.0  0.76750  0.18836  0.35456  1.0000
  C   C124      1.0  0.83032  0.25203  0.34940  1.0000
  N   N89       1.0  0.81542  0.23601  0.42909  1.0000
  C   C125      1.0  0.78425  0.20604  0.43576  1.0000
  C   C126      1.0  0.77455  0.19264  0.51646  1.0000
  N   N90       1.0  0.76601  0.18066  0.58748  1.0000
  C   C127      1.0  0.58350  0.54402  0.34974  1.0000
  C   C128      1.0  0.65629  0.58032  0.35277  1.0000
  N   N91       1.0  0.63838  0.57122  0.27313  1.0000
  C   C129      1.0  0.60299  0.55358  0.26793  1.0000
  C   C130      1.0  0.58894  0.54650  0.18753  1.0000
  N   N92       1.0  0.57639  0.54022  0.11676  1.0000
  C   C131      1.0  0.97516  0.54413  0.34972  1.0000
  C   C132      1.0  0.93889  0.58064  0.35278  1.0000
  N   N93       1.0  0.94799  0.57184  0.27313  1.0000
  C   C133      1.0  0.96563  0.55409  0.26792  1.0000
  C   C134      1.0  0.97270  0.54713  0.18752  1.0000
  N   N94       1.0  0.97899  0.54087  0.11674  1.0000
  C   C135      1.0  0.97503  0.93568  0.34975  1.0000
  C   C136      1.0  0.93851  0.86290  0.35282  1.0000
  N   N95       1.0  0.94732  0.88080  0.27317  1.0000
  C   C137      1.0  0.96507  0.91618  0.26795  1.0000
  C   C138      1.0  0.97205  0.93023  0.18754  1.0000
  N   N96       1.0  0.97832  0.94276  0.11676  1.0000
  N   N97       1.0  0.81573  0.58483  0.27546  1.0000
  C   C139      1.0  0.78419  0.58276  0.26924  1.0000
  H   H19       1.0  0.77622  0.58668  0.20742  1.0000
  N   N98       1.0  0.93432  0.73560  0.27540  1.0000
  C   C140      1.0  0.93635  0.70611  0.26916  1.0000
  H   H20       1.0  0.93255  0.69435  0.20717  1.0000
  N   N99       1.0  0.78355  0.70347  0.27496  1.0000
  C   C141      1.0  0.81302  0.73501  0.26876  1.0000
  H   H21       1.0  0.82478  0.74305  0.20679  1.0000
  C   C142      1.0  0.99341  0.97239  0.35350  1.0000
  N   N100      1.0  0.97594  0.99033  0.35292  1.0000
  C   C143      1.0  0.99347  0.52574  0.35349  1.0000
  N   N101      1.0  0.52890  0.54322  0.35291  1.0000
  C   C144      1.0  0.54679  0.52570  0.35350  1.0000
  N   N102      1.0  0.52884  0.99028  0.35293  1.0000
  C   C145      1.0  0.74623  0.65183  0.35158  1.0000
  N   N103      1.0  0.71081  0.63411  0.35287  1.0000
  C   C146      1.0  0.69290  0.59856  0.35200  1.0000
  N   N104      1.0  0.71067  0.58078  0.35052  1.0000
  C   C147      1.0  0.74609  0.59836  0.34954  1.0000
  N   N105      1.0  0.76322  0.63360  0.35045  1.0000
  C   C148      1.0  0.86735  0.59900  0.35177  1.0000
  N   N106      1.0  0.88509  0.58132  0.35307  1.0000
  C   C149      1.0  0.92064  0.59899  0.35202  1.0000
  N   N107      1.0  0.93841  0.63454  0.35039  1.0000
  C   C150      1.0  0.92082  0.65236  0.34942  1.0000
  N   N108      1.0  0.88557  0.63423  0.35048  1.0000
  C   C151      1.0  0.92013  0.77299  0.35183  1.0000
  N   N109      1.0  0.93782  0.80841  0.35314  1.0000
  C   C152      1.0  0.92015  0.82629  0.35207  1.0000
  N   N110      1.0  0.88460  0.80851  0.35037  1.0000
  C   C153      1.0  0.86676  0.77308  0.34948  1.0000
  N   N111      1.0  0.88489  0.75597  0.35050  1.0000
  N   N112      1.0  0.60151  0.55318  0.42930  1.0000
  C   C154      1.0  0.63687  0.57084  0.43402  1.0000
  H   H22       1.0  0.64884  0.57693  0.49603  1.0000
  N   N113      1.0  0.96598  0.55296  0.42930  1.0000
  C   C155      1.0  0.94833  0.57066  0.43403  1.0000
  H   H23       1.0  0.94222  0.57651  0.49604  1.0000
  N   N114      1.0  0.96619  0.91768  0.42932  1.0000
  C   C156      1.0  0.94848  0.88232  0.43406  1.0000
  H   H24       1.0  0.94262  0.87036  0.49608  1.0000
  C   C157      1.0  0.83083  0.58370  0.35492  1.0000
  C   C158      1.0  0.76714  0.58298  0.34997  1.0000
  N   N115      1.0  0.78315  0.58392  0.42950  1.0000
  C   C159      1.0  0.81307  0.58264  0.43607  1.0000
  C   C160      1.0  0.82645  0.58625  0.51677  1.0000
  N   N116      1.0  0.83843  0.58962  0.58778  1.0000
  C   C161      1.0  0.93542  0.75177  0.35491  1.0000
  C   C162      1.0  0.93617  0.68878  0.34971  1.0000
  N   N117      1.0  0.93520  0.70385  0.42926  1.0000
  C   C163      1.0  0.93646  0.73503  0.43599  1.0000
  C   C164      1.0  0.93284  0.74476  0.51673  1.0000
  N   N118      1.0  0.92946  0.75331  0.58779  1.0000
  C   C165      1.0  0.76750  0.68836  0.35456  1.0000
  C   C166      1.0  0.83032  0.75203  0.34940  1.0000
  N   N119      1.0  0.81542  0.73601  0.42909  1.0000
  C   C167      1.0  0.78425  0.70604  0.43576  1.0000
  C   C168      1.0  0.77455  0.69264  0.51646  1.0000
  N   N120      1.0  0.76601  0.68065  0.58748  1.0000
