data_image0
_chemical_formula_structural       C3OH2C3OH2C3HOHC3HOHC3HOHC3HOHC3OH2C3OH2C3OH2C3OH2C3HOHC3HOHC3HOHC3HOHC3OH2C3OH2C3OH2C3OH2CNCNCNCNCNCNCNCNCNCNCNCNCNCNCNCNCNCNCNCNCNCNCNCNCNCNCNCNCNCNCNCNCNCNCNCNC3HOHC3HOHC3OH2C3OH2C3OH2C3OH2C3HOHC3HOHC3HOHC3HOHC3OH2C3OH2C3OH2C3OH2C3HOHC3HOHC3HOHC3HOH
_chemical_formula_sum              "C144 O36 H72 N36"
_cell_length_a       34.1384
_cell_length_b       33.9772
_cell_length_c       14.9235
_cell_angle_alpha    90
_cell_angle_beta     90
_cell_angle_gamma    90.2785

_space_group_name_H-M_alt    "P 1"
_space_group_IT_number       1

loop_
  _space_group_symop_operation_xyz
  'x, y, z'

loop_
  _atom_site_type_symbol
  _atom_site_label
  _atom_site_symmetry_multiplicity
  _atom_site_fract_x
  _atom_site_fract_y
  _atom_site_fract_z
  _atom_site_occupancy
  C   C1        1.0  0.00733  0.53958  0.33296  1.0000
  C   C2        1.0  0.03739  0.51120  0.33256  1.0000
  C   C3        1.0  0.02973  0.47170  0.35874  1.0000
  O   O1        1.0  0.07295  0.52260  0.30008  1.0000
  H   H1        1.0  0.01413  0.56733  0.31095  1.0000
  H   H2        1.0  0.08483  0.53970  0.34593  1.0000
  C   C4        1.0  0.46137  0.00741  0.33941  1.0000
  C   C5        1.0  0.48979  0.03771  0.33894  1.0000
  C   C6        1.0  0.52971  0.02967  0.35866  1.0000
  O   O2        1.0  0.47756  0.07406  0.31336  1.0000
  H   H3        1.0  0.43325  0.01464  0.32239  1.0000
  H   H4        1.0  0.46271  0.08483  0.36421  1.0000
  C   C7        1.0  0.09774  0.30475  0.34384  1.0000
  C   C8        1.0  0.09054  0.26389  0.34368  1.0000
  C   C9        1.0  0.05237  0.24876  0.36069  1.0000
  H   H5        1.0  0.12555  0.31396  0.32861  1.0000
  O   O3        1.0  0.12114  0.24046  0.32011  1.0000
  H   H6        1.0  0.13660  0.23636  0.37493  1.0000
  C   C10       1.0  0.90309  0.69756  0.32838  1.0000
  C   C11       1.0  0.91086  0.73821  0.32290  1.0000
  C   C12       1.0  0.94861  0.75347  0.34368  1.0000
  H   H7        1.0  0.87539  0.68834  0.31241  1.0000
  O   O4        1.0  0.88041  0.76132  0.29686  1.0000
  H   H8        1.0  0.88240  0.76379  0.23133  1.0000
  C   C13       1.0  0.69599  0.09845  0.33185  1.0000
  C   C14       1.0  0.73648  0.09086  0.32650  1.0000
  C   C15       1.0  0.75158  0.05305  0.34755  1.0000
  H   H9        1.0  0.68678  0.12615  0.31539  1.0000
  O   O5        1.0  0.75974  0.12135  0.29974  1.0000
  H   H10       1.0  0.76231  0.11895  0.23430  1.0000
  C   C16       1.0  0.30421  0.90237  0.32698  1.0000
  C   C17       1.0  0.26375  0.91051  0.32499  1.0000
  C   C18       1.0  0.24930  0.94766  0.35328  1.0000
  H   H11       1.0  0.31317  0.87559  0.30342  1.0000
  O   O6        1.0  0.24006  0.88234  0.28873  1.0000
  H   H12       1.0  0.23453  0.86336  0.33693  1.0000
  C   C19       1.0  0.47809  0.77557  0.32523  1.0000
  C   C20       1.0  0.46965  0.81615  0.32718  1.0000
  C   C21       1.0  0.43239  0.82966  0.35582  1.0000
  O   O7        1.0  0.49845  0.84119  0.29928  1.0000
  H   H13       1.0  0.50508  0.76726  0.30230  1.0000
  H   H14       1.0  0.49349  0.84621  0.23537  1.0000
  C   C22       1.0  0.52163  0.22317  0.33621  1.0000
  C   C23       1.0  0.52971  0.18248  0.33780  1.0000
  C   C24       1.0  0.56730  0.16865  0.36310  1.0000
  O   O8        1.0  0.50143  0.15768  0.30650  1.0000
  H   H15       1.0  0.49473  0.23174  0.31322  1.0000
  H   H16       1.0  0.48040  0.15749  0.35158  1.0000
  C   C25       1.0  0.76198  0.58886  0.33063  1.0000
  C   C26       1.0  0.80209  0.59866  0.33116  1.0000
  C   C27       1.0  0.83080  0.57025  0.35455  1.0000
  O   O9        1.0  0.81123  0.63629  0.30730  1.0000
  H   H17       1.0  0.74272  0.61033  0.31176  1.0000
  H   H18       1.0  0.81650  0.63573  0.24249  1.0000
  C   C28       1.0  0.22359  0.47830  0.33283  1.0000
  C   C29       1.0  0.18286  0.47106  0.33656  1.0000
  C   C30       1.0  0.16817  0.43351  0.36181  1.0000
  O   O10       1.0  0.15872  0.50024  0.30804  1.0000
  H   H19       1.0  0.23269  0.50528  0.31020  1.0000
  H   H20       1.0  0.15781  0.51972  0.35673  1.0000
  C   C31       1.0  0.12558  0.05816  0.26162  1.0000
  C   C32       1.0  0.10218  0.09216  0.26207  1.0000
  C   C33       1.0  0.09604  0.11299  0.34301  1.0000
  H   H21       1.0  0.12729  0.04197  0.20381  1.0000
  O   O11       1.0  0.08306  0.10183  0.18511  1.0000
  H   H22       1.0  0.09681  0.12493  0.16057  1.0000
  C   C34       1.0  0.88746  0.95291  0.24159  1.0000
  C   C35       1.0  0.91099  0.91916  0.24005  1.0000
  C   C36       1.0  0.90646  0.88979  0.30684  1.0000
  H   H23       1.0  0.89317  0.97465  0.19574  1.0000
  O   O12       1.0  0.93982  0.91785  0.17692  1.0000
  H   H24       1.0  0.93188  0.89758  0.13347  1.0000
  C   C37       1.0  0.95409  0.11107  0.25660  1.0000
  C   C38       1.0  0.91926  0.08907  0.25047  1.0000
  C   C39       1.0  0.88907  0.09407  0.31491  1.0000
  H   H25       1.0  0.97625  0.10497  0.21245  1.0000
  O   O13       1.0  0.91755  0.06104  0.18522  1.0000
  H   H26       1.0  0.89824  0.07024  0.14114  1.0000
  C   C40       1.0  0.04886  0.89274  0.24762  1.0000
  C   C41       1.0  0.08312  0.91577  0.24836  1.0000
  C   C42       1.0  0.11209  0.90947  0.31479  1.0000
  H   H27       1.0  0.02751  0.89961  0.20204  1.0000
  O   O14       1.0  0.08547  0.94580  0.18801  1.0000
  H   H28       1.0  0.10526  0.93801  0.14363  1.0000
  C   C43       1.0  0.41226  0.58155  0.23929  1.0000
  C   C44       1.0  0.38910  0.54731  0.23751  1.0000
  C   C45       1.0  0.36036  0.54079  0.30463  1.0000
  O   O15       1.0  0.39800  0.51987  0.17414  1.0000
  H   H29       1.0  0.43444  0.58414  0.19336  1.0000
  H   H30       1.0  0.37604  0.51962  0.13152  1.0000
  C   C46       1.0  0.58828  0.41525  0.24693  1.0000
  C   C47       1.0  0.61167  0.44928  0.24254  1.0000
  C   C48       1.0  0.64008  0.45687  0.30987  1.0000
  O   O16       1.0  0.60323  0.47562  0.17645  1.0000
  H   H31       1.0  0.56632  0.41192  0.20068  1.0000
  H   H32       1.0  0.62551  0.47519  0.13472  1.0000
  C   C49       1.0  0.58455  0.58749  0.23962  1.0000
  C   C50       1.0  0.55034  0.61019  0.23611  1.0000
  C   C51       1.0  0.54314  0.63925  0.30232  1.0000
  O   O17       1.0  0.52361  0.60058  0.17175  1.0000
  H   H33       1.0  0.58765  0.56515  0.19408  1.0000
  H   H34       1.0  0.52354  0.62250  0.12873  1.0000
  C   C52       1.0  0.41492  0.40860  0.24501  1.0000
  C   C53       1.0  0.44935  0.38617  0.24438  1.0000
  C   C54       1.0  0.45677  0.35890  0.31425  1.0000
  O   O18       1.0  0.47611  0.39446  0.17918  1.0000
  H   H35       1.0  0.41171  0.42989  0.19695  1.0000
  H   H36       1.0  0.47623  0.37165  0.13863  1.0000
  C   C55       1.0  0.12723  0.42392  0.36167  1.0000
  N   N1        1.0  0.09829  0.45133  0.35992  1.0000
  C   C56       1.0  0.05940  0.44193  0.35941  1.0000
  N   N2        1.0  0.05001  0.40283  0.36090  1.0000
  C   C57       1.0  0.07738  0.37380  0.36229  1.0000
  N   N3        1.0  0.11544  0.38571  0.36266  1.0000
  C   C58       1.0  0.87178  0.57946  0.35693  1.0000
  N   N4        1.0  0.90025  0.55154  0.35931  1.0000
  C   C59       1.0  0.93925  0.56048  0.36029  1.0000
  N   N5        1.0  0.94922  0.59945  0.35832  1.0000
  C   C60       1.0  0.92233  0.62886  0.35633  1.0000
  N   N6        1.0  0.88418  0.61743  0.35578  1.0000
  C   C61       1.0  0.57754  0.12784  0.36161  1.0000
  N   N7        1.0  0.55032  0.09851  0.36073  1.0000
  C   C62       1.0  0.55956  0.05958  0.35890  1.0000
  N   N8        1.0  0.59849  0.05057  0.35823  1.0000
  C   C63       1.0  0.62743  0.07835  0.35892  1.0000
  N   N9        1.0  0.61567  0.11654  0.36054  1.0000
  C   C64       1.0  0.42228  0.87041  0.35781  1.0000
  N   N10       1.0  0.44977  0.89945  0.35915  1.0000
  C   C65       1.0  0.44081  0.93840  0.36081  1.0000
  N   N11       1.0  0.40197  0.94775  0.36057  1.0000
  C   C66       1.0  0.37286  0.92021  0.35925  1.0000
  N   N12       1.0  0.38419  0.88190  0.35783  1.0000
  C   C67       1.0  0.99799  0.15473  0.33824  1.0000
  N   N13       1.0  0.00615  0.19376  0.34808  1.0000
  C   C68       1.0  0.04370  0.20743  0.35723  1.0000
  N   N14       1.0  0.07301  0.18023  0.35739  1.0000
  C   C69       1.0  0.06591  0.14116  0.34836  1.0000
  N   N15       1.0  0.02838  0.12912  0.33746  1.0000
  C   C70       1.0  0.00402  0.84675  0.31997  1.0000
  N   N16       1.0  0.99536  0.80799  0.33250  1.0000
  C   C71       1.0  0.95752  0.79467  0.33768  1.0000
  N   N17       1.0  0.92834  0.82190  0.33073  1.0000
  C   C72       1.0  0.93575  0.86074  0.31788  1.0000
  N   N18       1.0  0.97369  0.87210  0.31276  1.0000
  C   C73       1.0  0.84331  0.99698  0.31993  1.0000
  N   N19       1.0  0.80494  0.00596  0.33302  1.0000
  C   C74       1.0  0.79252  0.04407  0.34091  1.0000
  N   N20       1.0  0.82028  0.07321  0.33604  1.0000
  C   C75       1.0  0.85885  0.06540  0.32268  1.0000
  N   N21       1.0  0.86918  0.02720  0.31521  1.0000
  C   C76       1.0  0.15808  0.00565  0.34211  1.0000
  N   N22       1.0  0.19646  0.99589  0.35109  1.0000
  C   C77       1.0  0.20853  0.95755  0.34908  1.0000
  N   N23       1.0  0.18039  0.92918  0.33842  1.0000
  C   C78       1.0  0.14187  0.93801  0.32854  1.0000
  N   N24       1.0  0.13154  0.97643  0.33025  1.0000
  C   C79       1.0  0.50486  0.65461  0.31304  1.0000
  N   N25       1.0  0.49645  0.69297  0.33006  1.0000
  C   C80       1.0  0.45873  0.70577  0.33975  1.0000
  N   N26       1.0  0.42936  0.67852  0.33220  1.0000
  C   C81       1.0  0.43658  0.63995  0.31577  1.0000
  N   N27       1.0  0.47445  0.62906  0.30665  1.0000
  C   C82       1.0  0.49511  0.34393  0.32635  1.0000
  N   N28       1.0  0.50352  0.30558  0.34312  1.0000
  C   C83       1.0  0.54122  0.29272  0.35234  1.0000
  N   N29       1.0  0.57064  0.31985  0.34429  1.0000
  C   C84       1.0  0.56335  0.35842  0.32799  1.0000
  N   N30       1.0  0.52550  0.36947  0.31909  1.0000
  C   C85       1.0  0.65577  0.49529  0.31957  1.0000
  N   N31       1.0  0.69412  0.50374  0.33532  1.0000
  C   C86       1.0  0.70737  0.54162  0.34302  1.0000
  N   N32       1.0  0.68048  0.57117  0.33476  1.0000
  C   C87       1.0  0.64194  0.56387  0.31926  1.0000
  N   N33       1.0  0.63065  0.52579  0.31207  1.0000
  C   C88       1.0  0.34443  0.50258  0.31711  1.0000
  N   N34       1.0  0.30612  0.49466  0.33430  1.0000
  C   C89       1.0  0.29252  0.45703  0.34530  1.0000
  N   N35       1.0  0.31905  0.42711  0.33902  1.0000
  C   C90       1.0  0.35763  0.43389  0.32234  1.0000
  N   N36       1.0  0.36923  0.47175  0.31186  1.0000
  C   C91       1.0  0.99095  0.46255  0.38593  1.0000
  C   C92       1.0  0.96108  0.49115  0.38802  1.0000
  C   C93       1.0  0.96868  0.53055  0.36088  1.0000
  H   H37       1.0  0.98405  0.43465  0.40665  1.0000
  O   O19       1.0  0.92514  0.47915  0.41699  1.0000
  H   H38       1.0  0.92400  0.48556  0.48120  1.0000
  C   C94       1.0  0.53920  0.99020  0.37975  1.0000
  C   C95       1.0  0.51062  0.96004  0.38210  1.0000
  C   C96       1.0  0.47080  0.96805  0.36120  1.0000
  H   H39       1.0  0.56742  0.98291  0.39565  1.0000
  O   O20       1.0  0.52321  0.92341  0.40473  1.0000
  H   H40       1.0  0.51888  0.92078  0.46962  1.0000
  C   C97       1.0  0.02253  0.27653  0.37879  1.0000
  C   C98       1.0  0.03001  0.31748  0.38070  1.0000
  C   C99       1.0  0.06806  0.33259  0.36249  1.0000
  O   O21       1.0  0.99925  0.34149  0.39925  1.0000
  H   H41       1.0  0.99460  0.26707  0.39191  1.0000
  H   H42       1.0  0.99979  0.34592  0.46437  1.0000
  C   C100      1.0  0.97786  0.72587  0.36744  1.0000
  C   C101      1.0  0.97021  0.68494  0.37089  1.0000
  C   C102      1.0  0.93219  0.66989  0.35239  1.0000
  O   O22       1.0  0.99992  0.66100  0.39725  1.0000
  H   H43       1.0  0.00551  0.73539  0.38315  1.0000
  H   H44       1.0  0.01567  0.65581  0.34337  1.0000
  C   C103      1.0  0.72400  0.02364  0.37217  1.0000
  C   C104      1.0  0.68330  0.03105  0.37551  1.0000
  C   C105      1.0  0.66836  0.06904  0.35601  1.0000
  O   O23       1.0  0.65946  0.00116  0.40301  1.0000
  H   H45       1.0  0.73339  0.99599  0.38850  1.0000
  H   H46       1.0  0.65466  0.98462  0.35000  1.0000
  C   C106      1.0  0.27727  0.97551  0.38414  1.0000
  C   C107      1.0  0.31774  0.96710  0.38744  1.0000
  C   C108      1.0  0.33214  0.93013  0.35815  1.0000
  O   O24       1.0  0.34194  0.99581  0.41935  1.0000
  H   H47       1.0  0.26833  0.00258  0.40593  1.0000
  H   H48       1.0  0.34568  0.99017  0.48341  1.0000
  C   C109      1.0  0.40456  0.80086  0.38206  1.0000
  C   C110      1.0  0.41271  0.76024  0.37832  1.0000
  C   C111      1.0  0.44995  0.74669  0.34956  1.0000
  H   H49       1.0  0.37754  0.80919  0.40475  1.0000
  O   O25       1.0  0.38429  0.73511  0.40792  1.0000
  H   H50       1.0  0.36509  0.73266  0.35904  1.0000
  C   C112      1.0  0.59536  0.19722  0.38968  1.0000
  C   C113      1.0  0.58700  0.23782  0.38988  1.0000
  C   C114      1.0  0.54986  0.25175  0.36135  1.0000
  H   H51       1.0  0.62269  0.18869  0.40994  1.0000
  O   O26       1.0  0.61635  0.26246  0.41652  1.0000
  H   H52       1.0  0.61096  0.26894  0.47953  1.0000
  C   C115      1.0  0.81721  0.53190  0.37553  1.0000
  C   C116      1.0  0.77696  0.52205  0.37446  1.0000
  C   C117      1.0  0.74831  0.55049  0.35101  1.0000
  H   H53       1.0  0.83674  0.51046  0.39301  1.0000
  O   O27       1.0  0.76726  0.48427  0.39569  1.0000
  H   H54       1.0  0.76028  0.48441  0.45963  1.0000
  C   C118      1.0  0.19607  0.40469  0.38647  1.0000
  C   C119      1.0  0.23672  0.41217  0.38455  1.0000
  C   C120      1.0  0.25149  0.44922  0.35572  1.0000
  H   H55       1.0  0.18702  0.37734  0.40676  1.0000
  O   O28       1.0  0.26055  0.38206  0.40944  1.0000
  H   H56       1.0  0.26737  0.38685  0.47254  1.0000
  C   C121      1.0  0.11540  0.10033  0.42151  1.0000
  C   C122      1.0  0.13926  0.06647  0.42075  1.0000
  C   C123      1.0  0.14393  0.04461  0.34063  1.0000
  O   O29       1.0  0.15273  0.05260  0.50051  1.0000
  H   H57       1.0  0.10968  0.11381  0.48146  1.0000
  H   H58       1.0  0.18063  0.05978  0.50311  1.0000
  C   C124      1.0  0.87534  0.89351  0.36884  1.0000
  C   C125      1.0  0.85185  0.92774  0.37068  1.0000
  C   C126      1.0  0.85871  0.95858  0.30855  1.0000
  O   O30       1.0  0.82506  0.93176  0.43761  1.0000
  H   H59       1.0  0.87200  0.87312  0.41882  1.0000
  H   H60       1.0  0.83901  0.94385  0.48839  1.0000
  C   C127      1.0  0.89339  0.12441  0.37915  1.0000
  C   C128      1.0  0.92818  0.14718  0.38391  1.0000
  C   C129      1.0  0.95973  0.13936  0.32483  1.0000
  O   O31       1.0  0.93275  0.17239  0.45398  1.0000
  H   H61       1.0  0.87266  0.12781  0.42808  1.0000
  H   H62       1.0  0.92284  0.19793  0.43323  1.0000
  C   C130      1.0  0.10732  0.87738  0.37427  1.0000
  C   C131      1.0  0.07296  0.85391  0.37270  1.0000
  C   C132      1.0  0.04239  0.86270  0.31169  1.0000
  O   O32       1.0  0.06762  0.82696  0.43904  1.0000
  H   H63       1.0  0.12730  0.87298  0.42443  1.0000
  H   H64       1.0  0.07865  0.80221  0.41636  1.0000
  C   C133      1.0  0.35296  0.57121  0.36699  1.0000
  C   C134      1.0  0.37581  0.60608  0.36751  1.0000
  C   C135      1.0  0.40724  0.61055  0.30618  1.0000
  H   H65       1.0  0.33314  0.56677  0.41756  1.0000
  O   O33       1.0  0.37086  0.63202  0.43598  1.0000
  H   H66       1.0  0.34934  0.64938  0.41769  1.0000
  C   C136      1.0  0.64695  0.42764  0.37541  1.0000
  C   C137      1.0  0.62389  0.39295  0.37852  1.0000
  C   C138      1.0  0.59286  0.38747  0.31658  1.0000
  H   H67       1.0  0.66639  0.43300  0.42627  1.0000
  O   O34       1.0  0.62825  0.36829  0.44961  1.0000
  H   H68       1.0  0.64910  0.34985  0.43277  1.0000
  C   C139      1.0  0.57293  0.64738  0.36569  1.0000
  C   C140      1.0  0.60743  0.62448  0.36903  1.0000
  C   C141      1.0  0.61287  0.59314  0.30762  1.0000
  H   H69       1.0  0.56811  0.66758  0.41537  1.0000
  O   O35       1.0  0.63334  0.63103  0.43683  1.0000
  H   H70       1.0  0.62474  0.61446  0.48724  1.0000
  C   C142      1.0  0.42711  0.35213  0.37874  1.0000
  C   C143      1.0  0.39215  0.37436  0.37840  1.0000
  C   C144      1.0  0.38664  0.40436  0.31365  1.0000
  H   H71       1.0  0.43229  0.33349  0.43130  1.0000
  O   O36       1.0  0.36712  0.37042  0.44878  1.0000
  H   H72       1.0  0.34844  0.34963  0.43162  1.0000
