data_image0
_chemical_formula_structural       HCH3CH2CNCHNCNCHN2CHNCHCNCHNCNCHN2CHNCHCNHCNHC6HOC6OH5C4H4C6HOC6OH5C4H4C6HOC6OH5C4H4C6HOC6OH4C3H2C6HOC6OH4C3H2CNCNHCNCNHCNC2HN2CNC2HN2CNCNHCNCNHCNC2HN2CNC2HN2CNC2NHNCNC2NHN
_chemical_formula_sum              "H70 C120 N40 O10"
_cell_length_a       32.0842
_cell_length_b       40.0164
_cell_length_c       15.0589
_cell_angle_alpha    88.1018
_cell_angle_beta     91.4807
_cell_angle_gamma    90.3427

_space_group_name_H-M_alt    "P 1"
_space_group_IT_number       1

loop_
  _space_group_symop_operation_xyz
  'x, y, z'

loop_
  _atom_site_type_symbol
  _atom_site_label
  _atom_site_symmetry_multiplicity
  _atom_site_fract_x
  _atom_site_fract_y
  _atom_site_fract_z
  _atom_site_occupancy
  H   H1        1.0  0.76106  0.38124  0.37071  1.0000
  C   C1        1.0  0.83684  0.35990  0.39863  1.0000
  H   H2        1.0  0.83571  0.38518  0.38636  1.0000
  H   H3        1.0  0.57422  0.30726  0.30108  1.0000
  H   H4        1.0  0.17816  0.64767  0.37083  1.0000
  C   C2        1.0  0.10297  0.66819  0.39828  1.0000
  H   H5        1.0  0.10390  0.64319  0.38633  1.0000
  H   H6        1.0  0.36321  0.72367  0.30103  1.0000
  C   C3        1.0  0.07299  0.14796  0.35128  1.0000
  N   N1        1.0  0.08904  0.17921  0.35071  1.0000
  C   C4        1.0  0.09979  0.12031  0.35538  1.0000
  H   H7        1.0  0.04130  0.14498  0.34858  1.0000
  N   N2        1.0  0.08116  0.09002  0.35436  1.0000
  C   C5        1.0  0.86536  0.88194  0.35260  1.0000
  N   N3        1.0  0.84932  0.85070  0.35200  1.0000
  C   C6        1.0  0.83860  0.90948  0.35608  1.0000
  H   H8        1.0  0.89699  0.88500  0.35033  1.0000
  N   N4        1.0  0.85719  0.93981  0.35493  1.0000
  N   N5        1.0  0.84096  0.19576  0.35125  1.0000
  C   C7        1.0  0.85426  0.16478  0.33458  1.0000
  H   H9        1.0  0.88416  0.16260  0.31471  1.0000
  N   N6        1.0  0.09684  0.83394  0.35309  1.0000
  C   C8        1.0  0.08314  0.86538  0.33701  1.0000
  H   H10       1.0  0.05261  0.86811  0.31839  1.0000
  C   C9        1.0  0.23202  0.48673  0.33514  1.0000
  N   N7        1.0  0.23512  0.51968  0.35305  1.0000
  C   C10       1.0  0.26793  0.46824  0.31720  1.0000
  H   H11       1.0  0.20331  0.47553  0.33590  1.0000
  N   N8        1.0  0.26362  0.43498  0.30616  1.0000
  C   C11       1.0  0.70666  0.54337  0.33424  1.0000
  N   N9        1.0  0.70397  0.50997  0.35214  1.0000
  C   C12       1.0  0.67035  0.56229  0.31585  1.0000
  H   H12       1.0  0.73539  0.55456  0.33529  1.0000
  N   N10       1.0  0.67438  0.59584  0.30494  1.0000
  N   N11       1.0  0.93402  0.38232  0.39731  1.0000
  C   C13       1.0  0.97638  0.38543  0.39588  1.0000
  H   H13       1.0  0.98936  0.40805  0.37897  1.0000
  N   N12       1.0  0.00552  0.64595  0.39756  1.0000
  C   C14       1.0  0.96309  0.64308  0.39626  1.0000
  H   H14       1.0  0.94953  0.62094  0.37945  1.0000
  C   C15       1.0  0.44618  0.29603  0.27090  1.0000
  N   N13       1.0  0.48621  0.30521  0.28883  1.0000
  H   H15       1.0  0.43784  0.29015  0.20732  1.0000
  C   C16       1.0  0.49040  0.73561  0.27076  1.0000
  N   N14       1.0  0.45078  0.72610  0.28890  1.0000
  H   H16       1.0  0.49724  0.74279  0.20699  1.0000
  C   C17       1.0  0.94682  0.01830  0.32998  1.0000
  C   C18       1.0  0.91659  0.99271  0.34466  1.0000
  C   C19       1.0  0.87304  0.99861  0.34688  1.0000
  C   C20       1.0  0.85903  0.03212  0.33819  1.0000
  C   C21       1.0  0.88783  0.05861  0.32328  1.0000
  C   C22       1.0  0.93058  0.05090  0.31641  1.0000
  H   H17       1.0  0.92647  0.96895  0.35884  1.0000
  O   O1        1.0  0.81748  0.03872  0.34322  1.0000
  C   C23       1.0  0.99088  0.01213  0.33012  1.0000
  C   C24       1.0  0.00678  0.97982  0.31724  1.0000
  C   C25       1.0  0.04967  0.97191  0.32447  1.0000
  C   C26       1.0  0.07885  0.99805  0.33902  1.0000
  C   C27       1.0  0.06506  0.03140  0.34703  1.0000
  C   C28       1.0  0.02146  0.03739  0.34436  1.0000
  O   O2        1.0  0.12049  0.99129  0.34455  1.0000
  H   H18       1.0  0.01192  0.06085  0.35810  1.0000
  H   H19       1.0  0.80619  0.03896  0.28184  1.0000
  H   H20       1.0  0.13045  0.99248  0.28328  1.0000
  H   H21       1.0  0.95046  0.07002  0.30021  1.0000
  H   H22       1.0  0.98652  0.96108  0.30122  1.0000
  C   C29       1.0  0.87698  0.09270  0.31797  1.0000
  C   C30       1.0  0.84429  0.97178  0.35602  1.0000
  C   C31       1.0  0.06035  0.93792  0.31976  1.0000
  C   C32       1.0  0.09404  0.05799  0.35600  1.0000
  H   H23       1.0  0.12539  0.05353  0.35739  1.0000
  H   H24       1.0  0.90031  0.10958  0.30598  1.0000
  H   H25       1.0  0.81296  0.97621  0.35700  1.0000
  H   H26       1.0  0.03668  0.92137  0.30798  1.0000
  C   C33       1.0  0.18883  0.32271  0.36256  1.0000
  C   C34       1.0  0.17599  0.28864  0.35926  1.0000
  C   C35       1.0  0.13355  0.27888  0.35866  1.0000
  C   C36       1.0  0.10283  0.30413  0.36283  1.0000
  C   C37       1.0  0.11380  0.33802  0.37597  1.0000
  C   C38       1.0  0.15663  0.34639  0.37485  1.0000
  H   H27       1.0  0.19738  0.27050  0.34895  1.0000
  O   O3        1.0  0.06193  0.29560  0.35027  1.0000
  C   C39       1.0  0.23130  0.33283  0.34949  1.0000
  C   C40       1.0  0.26568  0.31075  0.36208  1.0000
  C   C41       1.0  0.30664  0.31940  0.33658  1.0000
  C   C42       1.0  0.31447  0.35252  0.30368  1.0000
  C   C43       1.0  0.28234  0.37670  0.30121  1.0000
  C   C44       1.0  0.24142  0.36595  0.32026  1.0000
  O   O4        1.0  0.35420  0.36283  0.28582  1.0000
  H   H28       1.0  0.21823  0.38291  0.30837  1.0000
  H   H29       1.0  0.05587  0.29833  0.28604  1.0000
  H   H30       1.0  0.36710  0.36946  0.34266  1.0000
  H   H31       1.0  0.16434  0.37066  0.38656  1.0000
  H   H32       1.0  0.26101  0.28735  0.38938  1.0000
  C   C45       1.0  0.08383  0.36343  0.38660  1.0000
  C   C46       1.0  0.12065  0.24513  0.35332  1.0000
  C   C47       1.0  0.33962  0.29690  0.35642  1.0000
  C   C48       1.0  0.29163  0.41111  0.28845  1.0000
  H   H33       1.0  0.32178  0.41840  0.27892  1.0000
  H   H34       1.0  0.09259  0.38805  0.38569  1.0000
  H   H35       1.0  0.08924  0.24069  0.35249  1.0000
  H   H36       1.0  0.33953  0.28426  0.41663  1.0000
  C   C49       1.0  0.75011  0.70678  0.36240  1.0000
  C   C50       1.0  0.76278  0.74095  0.35925  1.0000
  C   C51       1.0  0.80517  0.75081  0.35925  1.0000
  C   C52       1.0  0.83607  0.72550  0.36356  1.0000
  C   C53       1.0  0.82548  0.69125  0.37624  1.0000
  C   C54       1.0  0.78264  0.68284  0.37468  1.0000
  H   H37       1.0  0.74109  0.75932  0.34915  1.0000
  O   O5        1.0  0.87668  0.73445  0.35172  1.0000
  C   C55       1.0  0.70738  0.69691  0.34905  1.0000
  C   C56       1.0  0.67322  0.71859  0.36175  1.0000
  C   C57       1.0  0.63169  0.71049  0.33615  1.0000
  C   C58       1.0  0.62322  0.67824  0.30272  1.0000
  C   C59       1.0  0.65537  0.65419  0.30010  1.0000
  C   C60       1.0  0.69669  0.66454  0.31949  1.0000
  O   O6        1.0  0.58310  0.66828  0.28467  1.0000
  H   H38       1.0  0.71966  0.64796  0.30741  1.0000
  H   H39       1.0  0.88141  0.73345  0.28755  1.0000
  H   H40       1.0  0.57154  0.66018  0.34144  1.0000
  H   H41       1.0  0.77527  0.65826  0.38623  1.0000
  H   H42       1.0  0.67844  0.74126  0.38938  1.0000
  C   C61       1.0  0.85575  0.66561  0.38687  1.0000
  C   C62       1.0  0.81787  0.78471  0.35428  1.0000
  C   C63       1.0  0.59898  0.73223  0.35622  1.0000
  C   C64       1.0  0.64591  0.62010  0.28703  1.0000
  H   H43       1.0  0.61555  0.61306  0.27722  1.0000
  H   H44       1.0  0.84706  0.64100  0.38573  1.0000
  H   H45       1.0  0.84926  0.78922  0.35393  1.0000
  H   H46       1.0  0.60092  0.74443  0.41492  1.0000
  C   C65       1.0  0.72196  0.33863  0.38611  1.0000
  C   C66       1.0  0.72434  0.30366  0.40437  1.0000
  C   C67       1.0  0.76219  0.28608  0.41189  1.0000
  C   C68       1.0  0.79996  0.30476  0.41015  1.0000
  C   C69       1.0  0.79981  0.34025  0.39891  1.0000
  C   C70       1.0  0.76072  0.35615  0.38488  1.0000
  H   H47       1.0  0.69766  0.29000  0.41257  1.0000
  O   O7        1.0  0.83658  0.28810  0.42560  1.0000
  C   C71       1.0  0.68223  0.35451  0.37295  1.0000
  C   C72       1.0  0.64575  0.33621  0.34878  1.0000
  C   C73       1.0  0.60525  0.34947  0.35289  1.0000
  C   C74       1.0  0.60093  0.38391  0.36970  1.0000
  C   C75       1.0  0.63679  0.40462  0.37834  1.0000
  C   C76       1.0  0.67649  0.38928  0.38345  1.0000
  O   O8        1.0  0.56212  0.39789  0.36682  1.0000
  H   H48       1.0  0.70151  0.40398  0.39875  1.0000
  H   H49       1.0  0.84819  0.28430  0.36690  1.0000
  H   H50       1.0  0.55496  0.40259  0.30370  1.0000
  H   H51       1.0  0.64810  0.31190  0.33097  1.0000
  C   C77       1.0  0.76029  0.25073  0.41504  1.0000
  C   C78       1.0  0.57055  0.32869  0.33543  1.0000
  C   C79       1.0  0.63297  0.43979  0.37635  1.0000
  H   H52       1.0  0.60397  0.45019  0.36922  1.0000
  H   H53       1.0  0.73231  0.23835  0.41873  1.0000
  C   C80       1.0  0.21744  0.69005  0.38548  1.0000
  C   C81       1.0  0.21534  0.72463  0.40301  1.0000
  C   C82       1.0  0.17759  0.74196  0.41013  1.0000
  C   C83       1.0  0.13986  0.72320  0.40868  1.0000
  C   C84       1.0  0.13991  0.68795  0.39816  1.0000
  C   C85       1.0  0.17873  0.67246  0.38452  1.0000
  H   H54       1.0  0.24215  0.73817  0.41106  1.0000
  O   O9        1.0  0.10349  0.73943  0.42324  1.0000
  C   C86       1.0  0.25693  0.67454  0.37284  1.0000
  C   C87       1.0  0.29279  0.69347  0.34865  1.0000
  C   C88       1.0  0.33344  0.68021  0.35337  1.0000
  C   C89       1.0  0.33829  0.64541  0.37088  1.0000
  C   C90       1.0  0.30271  0.62441  0.37949  1.0000
  C   C91       1.0  0.26304  0.63955  0.38397  1.0000
  O   O10       1.0  0.37710  0.63159  0.36873  1.0000
  H   H55       1.0  0.23844  0.62444  0.39939  1.0000
  H   H56       1.0  0.09066  0.74450  0.36426  1.0000
  H   H57       1.0  0.38295  0.62836  0.30575  1.0000
  H   H58       1.0  0.28994  0.71816  0.33027  1.0000
  C   C92       1.0  0.17944  0.77723  0.41292  1.0000
  C   C93       1.0  0.36763  0.70151  0.33600  1.0000
  C   C94       1.0  0.30661  0.58928  0.37798  1.0000
  H   H59       1.0  0.33549  0.57912  0.37105  1.0000
  H   H60       1.0  0.20746  0.78960  0.41645  1.0000
  C   C95       1.0  0.13074  0.18573  0.35372  1.0000
  N   N15       1.0  0.15722  0.15927  0.35753  1.0000
  C   C96       1.0  0.14309  0.12706  0.35833  1.0000
  N   N16       1.0  0.14534  0.21768  0.35463  1.0000
  H   H61       1.0  0.16418  0.10804  0.36102  1.0000
  C   C97       1.0  0.80769  0.84408  0.35439  1.0000
  N   N17       1.0  0.78125  0.87045  0.35759  1.0000
  C   C98       1.0  0.79536  0.90264  0.35840  1.0000
  N   N18       1.0  0.79314  0.81211  0.35515  1.0000
  H   H62       1.0  0.77430  0.92159  0.36058  1.0000
  C   C99       1.0  0.78684  0.14354  0.37502  1.0000
  N   N19       1.0  0.77499  0.17537  0.39025  1.0000
  C   C100      1.0  0.80203  0.20132  0.37909  1.0000
  C   C101      1.0  0.82757  0.13686  0.34732  1.0000
  H   H63       1.0  0.76605  0.12447  0.38591  1.0000
  N   N20       1.0  0.79385  0.23345  0.39234  1.0000
  N   N21       1.0  0.83938  0.10469  0.33939  1.0000
  C   C102      1.0  0.15194  0.88546  0.37467  1.0000
  N   N22       1.0  0.16413  0.85322  0.38936  1.0000
  C   C103      1.0  0.13663  0.82760  0.37927  1.0000
  C   C104      1.0  0.11037  0.89292  0.34850  1.0000
  H   H64       1.0  0.17316  0.90420  0.38463  1.0000
  N   N23       1.0  0.14516  0.79510  0.39178  1.0000
  N   N24       1.0  0.09851  0.92533  0.34052  1.0000
  C   C105      1.0  0.27242  0.53582  0.35521  1.0000
  N   N25       1.0  0.30747  0.51857  0.33775  1.0000
  C   C106      1.0  0.30631  0.48572  0.31873  1.0000
  N   N26       1.0  0.27309  0.56875  0.37156  1.0000
  H   H65       1.0  0.33380  0.47406  0.30789  1.0000
  C   C107      1.0  0.66673  0.49377  0.35390  1.0000
  N   N27       1.0  0.63128  0.51145  0.33609  1.0000
  C   C108      1.0  0.63201  0.54477  0.31706  1.0000
  N   N28       1.0  0.66640  0.46044  0.37029  1.0000
  H   H66       1.0  0.60427  0.55668  0.30596  1.0000
  C   C109      1.0  0.98157  0.32652  0.43133  1.0000
  N   N29       1.0  0.93954  0.32502  0.43274  1.0000
  C   C110      1.0  0.91549  0.35227  0.41558  1.0000
  C   C111      1.0  0.00174  0.35697  0.41026  1.0000
  H   H67       1.0  0.99797  0.30505  0.44418  1.0000
  N   N30       1.0  0.87442  0.34564  0.41303  1.0000
  N   N31       1.0  0.04327  0.35641  0.39944  1.0000
  C   C112      1.0  0.95923  0.70113  0.43183  1.0000
  N   N32       1.0  0.00129  0.70240  0.43300  1.0000
  C   C113      1.0  0.02470  0.67546  0.41575  1.0000
  C   C114      1.0  0.93832  0.67131  0.41079  1.0000
  H   H68       1.0  0.94332  0.72238  0.44455  1.0000
  N   N33       1.0  0.06572  0.68202  0.41282  1.0000
  N   N34       1.0  0.89656  0.67245  0.39992  1.0000
  C   C115      1.0  0.49824  0.31667  0.36956  1.0000
  N   N35       1.0  0.46972  0.31818  0.43427  1.0000
  C   C116      1.0  0.42978  0.30759  0.42190  1.0000
  C   C117      1.0  0.41595  0.29789  0.33676  1.0000
  N   N36       1.0  0.53568  0.33135  0.38292  1.0000
  H   H69       1.0  0.40905  0.31156  0.47075  1.0000
  N   N37       1.0  0.37535  0.29889  0.31093  1.0000
  C   C118      1.0  0.44069  0.71298  0.36998  1.0000
  N   N38       1.0  0.47075  0.71009  0.43476  1.0000
  C   C119      1.0  0.51039  0.72092  0.42212  1.0000
  C   C120      1.0  0.52223  0.73240  0.33670  1.0000
  N   N39       1.0  0.40364  0.69791  0.38365  1.0000
  H   H70       1.0  0.53229  0.71586  0.47106  1.0000
  N   N40       1.0  0.56215  0.73145  0.31077  1.0000
