data_image0
_chemical_formula_structural       OC3NCNH2C2NC2ONH2C2NC2ONH2NCHNCHNCHNCHNCHNCHC24H15C24H15C24H15C24H15C24H15C24H15NCHNCHNCHC2NC2ONH2C2NC2ONH2C2NC2ONH2C2NC2ONH2C2NC2ONH2C2NC2ONH2
_chemical_formula_sum              "O9 C189 N27 H117"
_cell_length_a       61.3583
_cell_length_b       61.3582
_cell_length_c       14.994
_cell_angle_alpha    90
_cell_angle_beta     90
_cell_angle_gamma    120

_space_group_name_H-M_alt    "P 1"
_space_group_IT_number       1

loop_
  _space_group_symop_operation_xyz
  'x, y, z'

loop_
  _atom_site_type_symbol
  _atom_site_label
  _atom_site_symmetry_multiplicity
  _atom_site_fract_x
  _atom_site_fract_y
  _atom_site_fract_z
  _atom_site_occupancy
  O   O1        1.0  0.00566  0.51895  0.08991  1.0000
  C   C1        1.0  0.01157  0.50760  0.23597  1.0000
  C   C2        1.0  0.02731  0.51198  0.31147  1.0000
  C   C3        1.0  0.97465  0.48656  0.32988  1.0000
  N   N1        1.0  0.98627  0.49529  0.24995  1.0000
  C   C4        1.0  0.01949  0.51340  0.14604  1.0000
  N   N2        1.0  0.03802  0.51042  0.10983  1.0000
  H   H1        1.0  0.04671  0.50363  0.14411  1.0000
  H   H2        1.0  0.04159  0.51316  0.04634  1.0000
  C   C5        1.0  0.48880  0.51550  0.30771  1.0000
  C   C6        1.0  0.51414  0.48812  0.32335  1.0000
  N   N3        1.0  0.50518  0.49112  0.24410  1.0000
  C   C7        1.0  0.49292  0.50421  0.23143  1.0000
  C   C8        1.0  0.48682  0.50642  0.14198  1.0000
  O   O2        1.0  0.48115  0.48712  0.08533  1.0000
  N   N4        1.0  0.48967  0.52797  0.10657  1.0000
  H   H3        1.0  0.49686  0.54346  0.14094  1.0000
  H   H4        1.0  0.48706  0.52894  0.04307  1.0000
  C   C9        1.0  0.48540  0.97372  0.31350  1.0000
  C   C10       1.0  0.51291  0.02642  0.33120  1.0000
  N   N5        1.0  0.50952  0.01466  0.25127  1.0000
  C   C11       1.0  0.49639  0.98936  0.23753  1.0000
  C   C12       1.0  0.49388  0.98138  0.14756  1.0000
  O   O3        1.0  0.51301  0.99516  0.09048  1.0000
  N   N6        1.0  0.47224  0.96279  0.11235  1.0000
  H   H5        1.0  0.45691  0.95412  0.14744  1.0000
  H   H6        1.0  0.47114  0.95917  0.04885  1.0000
  N   N7        1.0  0.28128  0.53446  0.27446  1.0000
  C   C13       1.0  0.25943  0.53458  0.26328  1.0000
  H   H7        1.0  0.25625  0.54058  0.20371  1.0000
  N   N8        1.0  0.46635  0.74703  0.27394  1.0000
  C   C14       1.0  0.46626  0.72507  0.26302  1.0000
  H   H8        1.0  0.46011  0.71577  0.20375  1.0000
  N   N9        1.0  0.25393  0.71966  0.27384  1.0000
  C   C15       1.0  0.27589  0.74152  0.26277  1.0000
  H   H9        1.0  0.28506  0.74475  0.20317  1.0000
  N   N10       1.0  0.72416  0.46797  0.26699  1.0000
  C   C16       1.0  0.74709  0.46980  0.26871  1.0000
  H   H10       1.0  0.75497  0.46909  0.20958  1.0000
  N   N11       1.0  0.52874  0.25405  0.27517  1.0000
  C   C17       1.0  0.52687  0.27513  0.27586  1.0000
  H   H11       1.0  0.52623  0.28276  0.21613  1.0000
  N   N12       1.0  0.74904  0.27670  0.25003  1.0000
  C   C18       1.0  0.72813  0.25384  0.24125  1.0000
  H   H12       1.0  0.72287  0.24624  0.17897  1.0000
  C   C19       1.0  0.17502  0.60668  0.34053  1.0000
  C   C20       1.0  0.14858  0.59316  0.33056  1.0000
  C   C21       1.0  0.13504  0.56658  0.32162  1.0000
  C   C22       1.0  0.14890  0.55373  0.32053  1.0000
  C   C23       1.0  0.17526  0.56672  0.33140  1.0000
  C   C24       1.0  0.18802  0.59311  0.34097  1.0000
  C   C25       1.0  0.10811  0.55296  0.31767  1.0000
  C   C26       1.0  0.09458  0.56195  0.26799  1.0000
  C   C27       1.0  0.06810  0.54867  0.26588  1.0000
  C   C28       1.0  0.05412  0.52564  0.31215  1.0000
  C   C29       1.0  0.06756  0.51685  0.36309  1.0000
  C   C30       1.0  0.09400  0.53023  0.36574  1.0000
  C   C31       1.0  0.18872  0.63334  0.35028  1.0000
  C   C32       1.0  0.18679  0.64920  0.28613  1.0000
  C   C33       1.0  0.20323  0.67543  0.28849  1.0000
  C   C34       1.0  0.22159  0.68661  0.35632  1.0000
  C   C35       1.0  0.22294  0.67075  0.42189  1.0000
  C   C36       1.0  0.20671  0.64459  0.41918  1.0000
  C   C37       1.0  0.18908  0.55390  0.33616  1.0000
  C   C38       1.0  0.20300  0.55596  0.41384  1.0000
  C   C39       1.0  0.21977  0.54666  0.41536  1.0000
  C   C40       1.0  0.22362  0.53550  0.33872  1.0000
  C   C41       1.0  0.20883  0.53258  0.26223  1.0000
  C   C42       1.0  0.19161  0.54144  0.26110  1.0000
  H   H13       1.0  0.20225  0.68625  0.23839  1.0000
  H   H14       1.0  0.17460  0.64165  0.23360  1.0000
  H   H15       1.0  0.23675  0.67788  0.46947  1.0000
  H   H16       1.0  0.20889  0.63370  0.46606  1.0000
  H   H17       1.0  0.20180  0.56518  0.46891  1.0000
  H   H18       1.0  0.23047  0.54983  0.47145  1.0000
  H   H19       1.0  0.18223  0.54023  0.20319  1.0000
  H   H20       1.0  0.21096  0.52460  0.20542  1.0000
  H   H21       1.0  0.10282  0.52332  0.40490  1.0000
  H   H22       1.0  0.05820  0.50042  0.39847  1.0000
  H   H23       1.0  0.05911  0.55614  0.23058  1.0000
  H   H24       1.0  0.10390  0.57825  0.23200  1.0000
  H   H25       1.0  0.13900  0.60283  0.33395  1.0000
  H   H26       1.0  0.20725  0.60265  0.34699  1.0000
  H   H27       1.0  0.13970  0.53457  0.31347  1.0000
  C   C43       1.0  0.39418  0.56854  0.34206  1.0000
  C   C44       1.0  0.40771  0.55563  0.33170  1.0000
  C   C45       1.0  0.43429  0.56870  0.32242  1.0000
  C   C46       1.0  0.44711  0.59540  0.32157  1.0000
  C   C47       1.0  0.43412  0.60876  0.33289  1.0000
  C   C48       1.0  0.40774  0.59511  0.34268  1.0000
  C   C49       1.0  0.44789  0.55538  0.31748  1.0000
  C   C50       1.0  0.43875  0.53288  0.26755  1.0000
  C   C51       1.0  0.45200  0.51966  0.26437  1.0000
  C   C52       1.0  0.47516  0.52867  0.30970  1.0000
  C   C53       1.0  0.48410  0.55087  0.36094  1.0000
  C   C54       1.0  0.47075  0.56396  0.36468  1.0000
  C   C55       1.0  0.36751  0.55554  0.35163  1.0000
  C   C56       1.0  0.35171  0.53778  0.28731  1.0000
  C   C57       1.0  0.32547  0.52796  0.28945  1.0000
  C   C58       1.0  0.31424  0.53510  0.35722  1.0000
  C   C59       1.0  0.33004  0.55227  0.42301  1.0000
  C   C60       1.0  0.35620  0.56222  0.42049  1.0000
  C   C61       1.0  0.44690  0.63541  0.33736  1.0000
  C   C62       1.0  0.44483  0.64734  0.41484  1.0000
  C   C63       1.0  0.45403  0.67339  0.41590  1.0000
  C   C64       1.0  0.46517  0.68834  0.33911  1.0000
  C   C65       1.0  0.46815  0.67641  0.26288  1.0000
  C   C66       1.0  0.45930  0.65033  0.26210  1.0000
  H   H28       1.0  0.31470  0.51621  0.23920  1.0000
  H   H29       1.0  0.35930  0.53319  0.23479  1.0000
  H   H30       1.0  0.32286  0.55892  0.47051  1.0000
  H   H31       1.0  0.36706  0.57528  0.46748  1.0000
  H   H32       1.0  0.43560  0.63696  0.46999  1.0000
  H   H33       1.0  0.45086  0.68096  0.47188  1.0000
  H   H34       1.0  0.46055  0.64212  0.20436  1.0000
  H   H35       1.0  0.47610  0.68646  0.20595  1.0000
  H   H36       1.0  0.47778  0.57967  0.40396  1.0000
  H   H37       1.0  0.50063  0.55791  0.39568  1.0000
  H   H38       1.0  0.44441  0.50322  0.22895  1.0000
  H   H39       1.0  0.42236  0.52593  0.23212  1.0000
  H   H40       1.0  0.39804  0.53639  0.33485  1.0000
  H   H41       1.0  0.39818  0.60478  0.34884  1.0000
  H   H42       1.0  0.46627  0.60538  0.31417  1.0000
  C   C67       1.0  0.43233  0.82598  0.34021  1.0000
  C   C68       1.0  0.44528  0.85245  0.33073  1.0000
  C   C69       1.0  0.43224  0.86601  0.32233  1.0000
  C   C70       1.0  0.40555  0.85218  0.32114  1.0000
  C   C71       1.0  0.39215  0.82580  0.33136  1.0000
  C   C72       1.0  0.40576  0.81300  0.34051  1.0000
  C   C73       1.0  0.44558  0.89294  0.31895  1.0000
  C   C74       1.0  0.46804  0.90651  0.26902  1.0000
  C   C75       1.0  0.48126  0.93299  0.26727  1.0000
  C   C76       1.0  0.47229  0.94693  0.31425  1.0000
  C   C77       1.0  0.45014  0.93346  0.36558  1.0000
  C   C78       1.0  0.43705  0.90701  0.36779  1.0000
  C   C79       1.0  0.44527  0.81227  0.34985  1.0000
  C   C80       1.0  0.46307  0.81421  0.28573  1.0000
  C   C81       1.0  0.47286  0.79777  0.28813  1.0000
  C   C82       1.0  0.46570  0.77943  0.35604  1.0000
  C   C83       1.0  0.44847  0.77807  0.42155  1.0000
  C   C84       1.0  0.43854  0.79430  0.41881  1.0000
  C   C85       1.0  0.36551  0.81198  0.33608  1.0000
  C   C86       1.0  0.35364  0.79808  0.41378  1.0000
  C   C87       1.0  0.32759  0.78125  0.41517  1.0000
  C   C88       1.0  0.31260  0.77732  0.33840  1.0000
  C   C89       1.0  0.32448  0.79213  0.26193  1.0000
  C   C90       1.0  0.35055  0.80936  0.26085  1.0000
  H   H43       1.0  0.48468  0.79876  0.23813  1.0000
  H   H44       1.0  0.46771  0.82640  0.23321  1.0000
  H   H45       1.0  0.44179  0.76426  0.46914  1.0000
  H   H46       1.0  0.42544  0.79209  0.46562  1.0000
  H   H47       1.0  0.36406  0.79928  0.46887  1.0000
  H   H48       1.0  0.32008  0.77052  0.47121  1.0000
  H   H49       1.0  0.35873  0.81878  0.20300  1.0000
  H   H50       1.0  0.31438  0.78996  0.20504  1.0000
  H   H51       1.0  0.42134  0.89814  0.40705  1.0000
  H   H52       1.0  0.44314  0.94281  0.40139  1.0000
  H   H53       1.0  0.49765  0.94200  0.23162  1.0000
  H   H54       1.0  0.47495  0.89721  0.23247  1.0000
  H   H55       1.0  0.46452  0.86201  0.33429  1.0000
  H   H56       1.0  0.39606  0.79377  0.34621  1.0000
  H   H57       1.0  0.39560  0.86142  0.31448  1.0000
  C   C91       1.0  0.82674  0.39394  0.33966  1.0000
  C   C92       1.0  0.85332  0.40716  0.33907  1.0000
  C   C93       1.0  0.86722  0.43379  0.34421  1.0000
  C   C94       1.0  0.85397  0.44712  0.35171  1.0000
  C   C95       1.0  0.82746  0.43431  0.35657  1.0000
  C   C96       1.0  0.81418  0.40781  0.34995  1.0000
  C   C97       1.0  0.89401  0.44695  0.34094  1.0000
  C   C98       1.0  0.90805  0.44012  0.39748  1.0000
  C   C99       1.0  0.93452  0.45328  0.39488  1.0000
  C   C100      1.0  0.94788  0.47350  0.33478  1.0000
  C   C101      1.0  0.93372  0.48002  0.27733  1.0000
  C   C102      1.0  0.90727  0.46717  0.28098  1.0000
  C   C103      1.0  0.81237  0.36735  0.32877  1.0000
  C   C104      1.0  0.81525  0.35078  0.38678  1.0000
  C   C105      1.0  0.79804  0.32469  0.38448  1.0000
  C   C106      1.0  0.77758  0.31452  0.32405  1.0000
  C   C107      1.0  0.77584  0.33097  0.26207  1.0000
  C   C108      1.0  0.79290  0.35694  0.26457  1.0000
  C   C109      1.0  0.81373  0.44723  0.36427  1.0000
  C   C110      1.0  0.79581  0.44081  0.43303  1.0000
  C   C111      1.0  0.77858  0.44954  0.43148  1.0000
  C   C112      1.0  0.77830  0.46464  0.36039  1.0000
  C   C113      1.0  0.79735  0.47226  0.29461  1.0000
  C   C114      1.0  0.81487  0.46379  0.29660  1.0000
  H   H58       1.0  0.79983  0.31332  0.43029  1.0000
  H   H59       1.0  0.82885  0.35773  0.43511  1.0000
  H   H60       1.0  0.76102  0.32451  0.21855  1.0000
  H   H61       1.0  0.79017  0.36835  0.22169  1.0000
  H   H62       1.0  0.79424  0.42855  0.48235  1.0000
  H   H63       1.0  0.76494  0.44300  0.47969  1.0000
  H   H64       1.0  0.82717  0.46825  0.24449  1.0000
  H   H65       1.0  0.79804  0.48323  0.24214  1.0000
  H   H66       1.0  0.89775  0.47244  0.23813  1.0000
  H   H67       1.0  0.94256  0.49454  0.23291  1.0000
  H   H68       1.0  0.94388  0.44743  0.43607  1.0000
  H   H69       1.0  0.89913  0.42568  0.44212  1.0000
  H   H70       1.0  0.86261  0.39733  0.33048  1.0000
  H   H71       1.0  0.79489  0.39841  0.35152  1.0000
  H   H72       1.0  0.86373  0.46635  0.35669  1.0000
  C   C115      1.0  0.60598  0.43177  0.32849  1.0000
  C   C116      1.0  0.59291  0.44529  0.32663  1.0000
  C   C117      1.0  0.56632  0.43284  0.33284  1.0000
  C   C118      1.0  0.55278  0.40632  0.34248  1.0000
  C   C119      1.0  0.56539  0.39244  0.34864  1.0000
  C   C120      1.0  0.59187  0.40542  0.34102  1.0000
  C   C121      1.0  0.55339  0.44670  0.33032  1.0000
  C   C122      1.0  0.56065  0.46769  0.38675  1.0000
  C   C123      1.0  0.54763  0.48114  0.38544  1.0000
  C   C124      1.0  0.52711  0.47430  0.32683  1.0000
  C   C125      1.0  0.52015  0.45352  0.26945  1.0000
  C   C126      1.0  0.53287  0.43977  0.27185  1.0000
  C   C127      1.0  0.63270  0.44386  0.32053  1.0000
  C   C128      1.0  0.64876  0.46450  0.37533  1.0000
  C   C129      1.0  0.67483  0.47333  0.37838  1.0000
  C   C130      1.0  0.68554  0.46166  0.32725  1.0000
  C   C131      1.0  0.66974  0.44235  0.26737  1.0000
  C   C132      1.0  0.64380  0.43364  0.26400  1.0000
  C   C133      1.0  0.55225  0.36588  0.36021  1.0000
  C   C134      1.0  0.55916  0.35497  0.42964  1.0000
  C   C135      1.0  0.55004  0.32893  0.43165  1.0000
  C   C136      1.0  0.53396  0.31283  0.36376  1.0000
  C   C137      1.0  0.52575  0.32371  0.29786  1.0000
  C   C138      1.0  0.53469  0.34980  0.29610  1.0000
  H   H73       1.0  0.68569  0.48740  0.42224  1.0000
  H   H74       1.0  0.64141  0.47212  0.41829  1.0000
  H   H75       1.0  0.67658  0.43310  0.23014  1.0000
  H   H76       1.0  0.63285  0.41871  0.22326  1.0000
  H   H77       1.0  0.57206  0.36610  0.47662  1.0000
  H   H78       1.0  0.55702  0.32228  0.47989  1.0000
  H   H79       1.0  0.52976  0.35715  0.24373  1.0000
  H   H80       1.0  0.51407  0.31294  0.24758  1.0000
  H   H81       1.0  0.52726  0.42486  0.22926  1.0000
  H   H82       1.0  0.50540  0.44785  0.22613  1.0000
  H   H83       1.0  0.55375  0.49639  0.42660  1.0000
  H   H84       1.0  0.57529  0.47317  0.43048  1.0000
  H   H85       1.0  0.60285  0.46438  0.31719  1.0000
  H   H86       1.0  0.60110  0.39539  0.34466  1.0000
  H   H87       1.0  0.53359  0.39709  0.34893  1.0000
  C   C139      1.0  0.56809  0.17428  0.32812  1.0000
  C   C140      1.0  0.55502  0.14774  0.33536  1.0000
  C   C141      1.0  0.56795  0.13400  0.33697  1.0000
  C   C142      1.0  0.59459  0.14741  0.33341  1.0000
  C   C143      1.0  0.60814  0.17387  0.32658  1.0000
  C   C144      1.0  0.59468  0.18695  0.32477  1.0000
  C   C145      1.0  0.55446  0.10717  0.33753  1.0000
  C   C146      1.0  0.53467  0.09348  0.39862  1.0000
  C   C147      1.0  0.52124  0.06699  0.39783  1.0000
  C   C148      1.0  0.52689  0.05323  0.33523  1.0000
  C   C149      1.0  0.54657  0.06703  0.27367  1.0000
  C   C150      1.0  0.56022  0.09348  0.27520  1.0000
  C   C151      1.0  0.55538  0.18844  0.32429  1.0000
  C   C152      1.0  0.53642  0.18459  0.38643  1.0000
  C   C153      1.0  0.52716  0.20147  0.39153  1.0000
  C   C154      1.0  0.53679  0.22286  0.33542  1.0000
  C   C155      1.0  0.55422  0.22546  0.26860  1.0000
  C   C156      1.0  0.56327  0.20855  0.26300  1.0000
  C   C157      1.0  0.63475  0.18750  0.31849  1.0000
  C   C158      1.0  0.64594  0.20296  0.24320  1.0000
  C   C159      1.0  0.67200  0.21973  0.24017  1.0000
  C   C160      1.0  0.68775  0.22189  0.31276  1.0000
  C   C161      1.0  0.67649  0.20570  0.38677  1.0000
  C   C162      1.0  0.65041  0.18854  0.38931  1.0000
  H   H88       1.0  0.51436  0.19878  0.44015  1.0000
  H   H89       1.0  0.53042  0.17049  0.43270  1.0000
  H   H90       1.0  0.56195  0.24077  0.22706  1.0000
  H   H91       1.0  0.57676  0.21188  0.21625  1.0000
  H   H92       1.0  0.63502  0.20305  0.19170  1.0000
  H   H93       1.0  0.67885  0.23182  0.18719  1.0000
  H   H94       1.0  0.64273  0.17815  0.44590  1.0000
  H   H95       1.0  0.68707  0.20700  0.44146  1.0000
  H   H96       1.0  0.57407  0.10267  0.22866  1.0000
  H   H97       1.0  0.55138  0.05796  0.22716  1.0000
  H   H98       1.0  0.50677  0.05792  0.44214  1.0000
  H   H99       1.0  0.52995  0.10271  0.44481  1.0000
  H   H100      1.0  0.53574  0.13823  0.33496  1.0000
  H   H101      1.0  0.60459  0.20623  0.32201  1.0000
  H   H102      1.0  0.60428  0.13782  0.33415  1.0000
  N   N13       1.0  0.01573  0.50333  0.39164  1.0000
  C   C163      1.0  0.99048  0.49078  0.40383  1.0000
  H   H103      1.0  0.98352  0.48536  0.46681  1.0000
  N   N14       1.0  0.49772  0.51250  0.38718  1.0000
  C   C164      1.0  0.51025  0.49973  0.39803  1.0000
  H   H104      1.0  0.51592  0.49816  0.46056  1.0000
  N   N15       1.0  0.48876  0.98540  0.39373  1.0000
  C   C165      1.0  0.50159  0.01066  0.40558  1.0000
  H   H105      1.0  0.50350  0.01769  0.46863  1.0000
  C   C166      1.0  0.28853  0.52855  0.35227  1.0000
  C   C167      1.0  0.24373  0.53016  0.33789  1.0000
  N   N16       1.0  0.25098  0.52401  0.41518  1.0000
  C   C168      1.0  0.27198  0.52215  0.42650  1.0000
  C   C169      1.0  0.27582  0.51489  0.51232  1.0000
  O   O4        1.0  0.26466  0.51890  0.58340  1.0000
  N   N17       1.0  0.28800  0.50196  0.52693  1.0000
  H   H106      1.0  0.29388  0.49589  0.47790  1.0000
  H   H107      1.0  0.28862  0.49614  0.58670  1.0000
  C   C170      1.0  0.47229  0.76029  0.35156  1.0000
  C   C171      1.0  0.47055  0.71380  0.33798  1.0000
  N   N18       1.0  0.47668  0.72726  0.41512  1.0000
  C   C172      1.0  0.47861  0.75017  0.42605  1.0000
  C   C173      1.0  0.48578  0.76129  0.51185  1.0000
  O   O5        1.0  0.48161  0.74615  0.58315  1.0000
  N   N19       1.0  0.49877  0.78641  0.52633  1.0000
  H   H108      1.0  0.50466  0.79838  0.47739  1.0000
  H   H109      1.0  0.50425  0.79290  0.58627  1.0000
  C   C174      1.0  0.24075  0.71232  0.35162  1.0000
  C   C175      1.0  0.28717  0.75717  0.33749  1.0000
  N   N20       1.0  0.27378  0.74984  0.41478  1.0000
  C   C176      1.0  0.25093  0.72881  0.42599  1.0000
  C   C177      1.0  0.23986  0.72490  0.51189  1.0000
  O   O6        1.0  0.25505  0.73599  0.58297  1.0000
  N   N21       1.0  0.21475  0.71271  0.52662  1.0000
  H   H110      1.0  0.20278  0.70686  0.47764  1.0000
  H   H111      1.0  0.20833  0.71203  0.58646  1.0000
  C   C178      1.0  0.71059  0.46662  0.34077  1.0000
  C   C179      1.0  0.75761  0.46904  0.35164  1.0000
  N   N22       1.0  0.74395  0.46777  0.42496  1.0000
  C   C180      1.0  0.72147  0.46709  0.42507  1.0000
  C   C181      1.0  0.70984  0.46330  0.50953  1.0000
  O   O7        1.0  0.72436  0.47637  0.57980  1.0000
  N   N23       1.0  0.68628  0.44438  0.52703  1.0000
  H   H112      1.0  0.67606  0.43229  0.48146  1.0000
  H   H113      1.0  0.67985  0.44141  0.58773  1.0000
  C   C182      1.0  0.53172  0.24290  0.34911  1.0000
  C   C183      1.0  0.52927  0.28756  0.35762  1.0000
  N   N24       1.0  0.53202  0.27618  0.43122  1.0000
  C   C184      1.0  0.53282  0.25445  0.43260  1.0000
  C   C185      1.0  0.53822  0.24776  0.51663  1.0000
  O   O8        1.0  0.52631  0.25000  0.58907  1.0000
  N   N25       1.0  0.55773  0.24381  0.53079  1.0000
  H   H114      1.0  0.56918  0.24554  0.48296  1.0000
  H   H115      1.0  0.56203  0.24154  0.59116  1.0000
  C   C186      1.0  0.75747  0.28922  0.32875  1.0000
  C   C187      1.0  0.71300  0.24233  0.31692  1.0000
  N   N26       1.0  0.72176  0.25469  0.39566  1.0000
  C   C188      1.0  0.74336  0.27710  0.40673  1.0000
  C   C189      1.0  0.74759  0.28733  0.49377  1.0000
  O   O9        1.0  0.74292  0.27158  0.56350  1.0000
  N   N27       1.0  0.75206  0.31079  0.51202  1.0000
  H   H116      1.0  0.75236  0.32190  0.46526  1.0000
  H   H117      1.0  0.75300  0.31620  0.57355  1.0000
