data_image0
_chemical_formula_structural       C3NC3NC5NC5NC20H18N4C3NC3NC5NC5NC20H18N4C3NC3NC5NC5NC20H18N4C3NC3NC5NC5NC20H18N4C3NC3NC5NC5NC20H18N4C3NC3NC5NC5NC20H18N4C3H2CHC3H2CHC3H2CHC3H2CHC3H2CHC3H2CHC3H2CHC3H2CHC3H2CHC3H2CHC3H2CHC3H2CHC8H8C8H8C8H8C8H8C8H8C8H8C3HOHCHC3HOHCHC3HOHCHC3HOHCHC3HOHCHC3HOHCHC3HOHCHC3HOHCHC3HOHCHC3HOHCHC3HOHCHC3HOHCH
_chemical_formula_sum              "C360 N48 H228 O12"
_cell_length_a       69.2965
_cell_length_b       69.2964
_cell_length_c       14.8743
_cell_angle_alpha    90.0046
_cell_angle_beta     89.9098
_cell_angle_gamma    120

_space_group_name_H-M_alt    "P 1"
_space_group_IT_number       1

loop_
  _space_group_symop_operation_xyz
  'x, y, z'

loop_
  _atom_site_type_symbol
  _atom_site_label
  _atom_site_symmetry_multiplicity
  _atom_site_fract_x
  _atom_site_fract_y
  _atom_site_fract_z
  _atom_site_occupancy
  C   C1        1.0  0.21314  0.37795  0.32310  1.0000
  C   C2        1.0  0.23310  0.37791  0.32309  1.0000
  C   C3        1.0  0.25055  0.39998  0.32280  1.0000
  N   N1        1.0  0.24044  0.41249  0.32283  1.0000
  C   C4        1.0  0.21783  0.40004  0.32307  1.0000
  C   C5        1.0  0.20152  0.40687  0.32313  1.0000
  C   C6        1.0  0.20656  0.42947  0.32325  1.0000
  N   N2        1.0  0.22684  0.44812  0.32274  1.0000
  C   C7        1.0  0.22538  0.46688  0.32327  1.0000
  C   C8        1.0  0.20267  0.45984  0.32409  1.0000
  C   C9        1.0  0.19109  0.43683  0.32429  1.0000
  C   C10       1.0  0.24302  0.48934  0.32299  1.0000
  C   C11       1.0  0.26608  0.49606  0.32254  1.0000
  N   N3        1.0  0.27605  0.48349  0.32228  1.0000
  C   C12       1.0  0.29860  0.49600  0.32217  1.0000
  C   C13       1.0  0.30337  0.51813  0.32211  1.0000
  C   C14       1.0  0.28349  0.51817  0.32260  1.0000
  C   C15       1.0  0.31488  0.48920  0.32203  1.0000
  C   C16       1.0  0.30998  0.46671  0.32198  1.0000
  N   N4        1.0  0.28973  0.44801  0.32246  1.0000
  C   C17       1.0  0.29128  0.42932  0.32237  1.0000
  C   C18       1.0  0.31410  0.43660  0.32160  1.0000
  C   C19       1.0  0.32560  0.45960  0.32159  1.0000
  C   C20       1.0  0.27367  0.40674  0.32272  1.0000
  C   C21       1.0  0.28004  0.39000  0.32319  1.0000
  C   C22       1.0  0.29961  0.36203  0.32180  1.0000
  C   C23       1.0  0.29281  0.36767  0.24119  1.0000
  C   C24       1.0  0.28326  0.38150  0.24163  1.0000
  C   C25       1.0  0.33773  0.50633  0.32238  1.0000
  C   C26       1.0  0.38134  0.54442  0.32183  1.0000
  C   C27       1.0  0.37078  0.53394  0.24061  1.0000
  C   C28       1.0  0.34923  0.51512  0.24066  1.0000
  C   C29       1.0  0.23738  0.50652  0.32330  1.0000
  C   C30       1.0  0.23708  0.51694  0.24210  1.0000
  C   C31       1.0  0.23439  0.53578  0.24308  1.0000
  C   C32       1.0  0.23193  0.54466  0.32524  1.0000
  C   C33       1.0  0.17838  0.39018  0.32338  1.0000
  C   C34       1.0  0.16589  0.38434  0.24290  1.0000
  C   C35       1.0  0.13088  0.36209  0.32656  1.0000
  C   C36       1.0  0.14252  0.37050  0.24447  1.0000
  H   H1        1.0  0.13407  0.36727  0.18512  1.0000
  H   H2        1.0  0.17365  0.39087  0.18282  1.0000
  H   H3        1.0  0.19776  0.36392  0.32319  1.0000
  H   H4        1.0  0.23440  0.36386  0.32322  1.0000
  H   H5        1.0  0.24848  0.42851  0.32272  1.0000
  H   H6        1.0  0.26802  0.46748  0.32231  1.0000
  H   H7        1.0  0.17411  0.42728  0.32531  1.0000
  H   H8        1.0  0.19547  0.46961  0.32479  1.0000
  H   H9        1.0  0.23967  0.51140  0.18196  1.0000
  H   H10       1.0  0.23495  0.54329  0.18329  1.0000
  H   H11       1.0  0.28230  0.53229  0.32296  1.0000
  H   H12       1.0  0.31870  0.53222  0.32196  1.0000
  H   H13       1.0  0.32147  0.42700  0.32098  1.0000
  H   H14       1.0  0.34257  0.46933  0.32104  1.0000
  H   H15       1.0  0.34168  0.50837  0.18055  1.0000
  H   H16       1.0  0.37850  0.54031  0.18029  1.0000
  H   H17       1.0  0.27943  0.38600  0.18163  1.0000
  H   H18       1.0  0.29545  0.36230  0.18074  1.0000
  N   N5        1.0  0.40107  0.56303  0.31553  1.0000
  N   N6        1.0  0.23068  0.56319  0.33239  1.0000
  N   N7        1.0  0.10865  0.35006  0.33436  1.0000
  N   N8        1.0  0.30993  0.35008  0.31494  1.0000
  C   C37       1.0  0.69330  0.83730  0.32422  1.0000
  C   C38       1.0  0.69334  0.85729  0.32413  1.0000
  C   C39       1.0  0.67126  0.85267  0.32379  1.0000
  N   N9        1.0  0.65876  0.83006  0.32388  1.0000
  C   C40       1.0  0.67120  0.81989  0.32420  1.0000
  C   C41       1.0  0.66437  0.79675  0.32431  1.0000
  C   C42       1.0  0.64177  0.77919  0.32445  1.0000
  N   N10       1.0  0.62312  0.78082  0.32395  1.0000
  C   C43       1.0  0.60437  0.76060  0.32449  1.0000
  C   C44       1.0  0.61141  0.74493  0.32531  1.0000
  C   C45       1.0  0.63441  0.75636  0.32553  1.0000
  C   C46       1.0  0.58190  0.75578  0.32421  1.0000
  C   C47       1.0  0.57518  0.77212  0.32373  1.0000
  N   N11       1.0  0.58775  0.79466  0.32342  1.0000
  C   C48       1.0  0.57524  0.80470  0.32325  1.0000
  C   C49       1.0  0.55311  0.78734  0.32326  1.0000
  C   C50       1.0  0.55307  0.76743  0.32381  1.0000
  C   C51       1.0  0.58204  0.82778  0.32297  1.0000
  C   C52       1.0  0.60453  0.84537  0.32285  1.0000
  N   N12       1.0  0.62324  0.84382  0.32340  1.0000
  C   C53       1.0  0.64193  0.86407  0.32321  1.0000
  C   C54       1.0  0.63464  0.87960  0.32231  1.0000
  C   C55       1.0  0.61164  0.86809  0.32233  1.0000
  C   C56       1.0  0.66450  0.86903  0.32360  1.0000
  C   C57       1.0  0.68124  0.89215  0.32395  1.0000
  C   C58       1.0  0.70922  0.93967  0.32229  1.0000
  C   C59       1.0  0.70363  0.92720  0.24177  1.0000
  C   C60       1.0  0.68981  0.90382  0.24233  1.0000
  C   C61       1.0  0.56492  0.83350  0.32315  1.0000
  C   C62       1.0  0.52681  0.83900  0.32231  1.0000
  C   C63       1.0  0.53738  0.83893  0.24117  1.0000
  C   C64       1.0  0.55620  0.83620  0.24136  1.0000
  C   C65       1.0  0.56472  0.73295  0.32452  1.0000
  C   C66       1.0  0.55434  0.72224  0.24333  1.0000
  C   C67       1.0  0.53551  0.70071  0.24431  1.0000
  C   C68       1.0  0.52659  0.68935  0.32647  1.0000
  C   C69       1.0  0.68107  0.79031  0.32458  1.0000
  C   C70       1.0  0.68697  0.78366  0.24410  1.0000
  C   C71       1.0  0.70914  0.77088  0.32777  1.0000
  C   C72       1.0  0.70078  0.77410  0.24568  1.0000
  H   H19       1.0  0.70406  0.76890  0.18632  1.0000
  H   H20       1.0  0.68047  0.78488  0.18401  1.0000
  H   H21       1.0  0.70732  0.83594  0.32434  1.0000
  H   H22       1.0  0.70739  0.87265  0.32422  1.0000
  H   H23       1.0  0.64274  0.82207  0.32374  1.0000
  H   H24       1.0  0.60377  0.80264  0.32338  1.0000
  H   H25       1.0  0.64396  0.74894  0.32652  1.0000
  H   H26       1.0  0.60164  0.72796  0.32603  1.0000
  H   H27       1.0  0.55990  0.73038  0.18321  1.0000
  H   H28       1.0  0.52801  0.69377  0.18455  1.0000
  H   H29       1.0  0.53896  0.75212  0.32421  1.0000
  H   H30       1.0  0.53903  0.78859  0.32305  1.0000
  H   H31       1.0  0.64424  0.89657  0.32162  1.0000
  H   H32       1.0  0.60192  0.87534  0.32172  1.0000
  H   H33       1.0  0.56301  0.83540  0.18131  1.0000
  H   H34       1.0  0.53107  0.84028  0.18080  1.0000
  H   H35       1.0  0.68534  0.89546  0.18239  1.0000
  H   H36       1.0  0.70907  0.93519  0.18128  1.0000
  N   N13       1.0  0.50821  0.84012  0.31588  1.0000
  N   N14       1.0  0.50805  0.66959  0.33364  1.0000
  N   N15       1.0  0.72118  0.76069  0.33557  1.0000
  N   N16       1.0  0.72118  0.96194  0.31530  1.0000
  C   C73       1.0  0.23395  0.85810  0.32226  1.0000
  C   C74       1.0  0.21396  0.83814  0.32215  1.0000
  C   C75       1.0  0.21857  0.82069  0.32181  1.0000
  N   N17       1.0  0.24118  0.83080  0.32193  1.0000
  C   C76       1.0  0.25135  0.85341  0.32229  1.0000
  C   C77       1.0  0.27450  0.86972  0.32246  1.0000
  C   C78       1.0  0.29205  0.86468  0.32266  1.0000
  N   N18       1.0  0.29042  0.84440  0.32215  1.0000
  C   C79       1.0  0.31064  0.84586  0.32282  1.0000
  C   C80       1.0  0.32631  0.86857  0.32375  1.0000
  C   C81       1.0  0.31488  0.88014  0.32389  1.0000
  C   C82       1.0  0.31547  0.82822  0.32257  1.0000
  C   C83       1.0  0.29913  0.80516  0.32198  1.0000
  N   N19       1.0  0.27659  0.79519  0.32155  1.0000
  C   C84       1.0  0.26655  0.77264  0.32135  1.0000
  C   C85       1.0  0.28391  0.76787  0.32141  1.0000
  C   C86       1.0  0.30382  0.78775  0.32206  1.0000
  C   C87       1.0  0.24347  0.75636  0.32102  1.0000
  C   C88       1.0  0.22588  0.76126  0.32086  1.0000
  N   N20       1.0  0.22742  0.78151  0.32139  1.0000
  C   C89       1.0  0.20718  0.77996  0.32120  1.0000
  C   C90       1.0  0.19165  0.75714  0.32029  1.0000
  C   C91       1.0  0.20315  0.74564  0.32030  1.0000
  C   C92       1.0  0.20221  0.79756  0.32160  1.0000
  C   C93       1.0  0.17910  0.79119  0.32198  1.0000
  C   C94       1.0  0.13158  0.77163  0.32059  1.0000
  C   C95       1.0  0.14406  0.77847  0.23999  1.0000
  C   C96       1.0  0.16744  0.78804  0.24043  1.0000
  C   C97       1.0  0.23775  0.73351  0.32126  1.0000
  C   C98       1.0  0.23221  0.68990  0.32063  1.0000
  C   C99       1.0  0.23239  0.70054  0.23943  1.0000
  C   C100      1.0  0.23511  0.72208  0.23951  1.0000
  C   C101      1.0  0.33829  0.83387  0.32308  1.0000
  C   C102      1.0  0.34911  0.83421  0.24203  1.0000
  C   C103      1.0  0.37065  0.83693  0.24324  1.0000
  C   C104      1.0  0.38189  0.83934  0.32552  1.0000
  C   C105      1.0  0.28094  0.89286  0.32281  1.0000
  C   C106      1.0  0.28769  0.90543  0.24241  1.0000
  C   C107      1.0  0.30036  0.94035  0.32625  1.0000
  C   C108      1.0  0.29722  0.92880  0.24411  1.0000
  H   H37       1.0  0.30249  0.93731  0.18479  1.0000
  H   H38       1.0  0.28652  0.89773  0.18229  1.0000
  H   H39       1.0  0.23530  0.87348  0.32239  1.0000
  H   H40       1.0  0.19860  0.83684  0.32220  1.0000
  H   H41       1.0  0.24917  0.82276  0.32182  1.0000
  H   H42       1.0  0.26860  0.80322  0.32151  1.0000
  H   H43       1.0  0.32231  0.89712  0.32495  1.0000
  H   H44       1.0  0.34328  0.87577  0.32457  1.0000
  H   H45       1.0  0.34107  0.83170  0.18179  1.0000
  H   H46       1.0  0.37767  0.83641  0.18354  1.0000
  H   H47       1.0  0.31913  0.78894  0.32254  1.0000
  H   H48       1.0  0.28266  0.75254  0.32121  1.0000
  H   H49       1.0  0.17467  0.74977  0.31963  1.0000
  H   H50       1.0  0.19590  0.72867  0.31974  1.0000
  H   H51       1.0  0.23600  0.72969  0.17942  1.0000
  H   H52       1.0  0.23112  0.69287  0.17909  1.0000
  H   H53       1.0  0.17582  0.79191  0.18044  1.0000
  H   H54       1.0  0.13609  0.77589  0.17954  1.0000
  N   N21       1.0  0.23112  0.67018  0.31431  1.0000
  N   N22       1.0  0.40164  0.84055  0.33291  1.0000
  N   N23       1.0  0.31054  0.96258  0.33416  1.0000
  N   N24       1.0  0.10931  0.76132  0.31375  1.0000
  C   C109      1.0  0.88044  0.67095  0.32405  1.0000
  C   C110      1.0  0.86049  0.67098  0.32414  1.0000
  C   C111      1.0  0.84304  0.64891  0.32398  1.0000
  N   N25       1.0  0.85314  0.63641  0.32403  1.0000
  C   C112      1.0  0.87576  0.64885  0.32415  1.0000
  C   C113      1.0  0.89206  0.64202  0.32416  1.0000
  C   C114      1.0  0.88702  0.61942  0.32443  1.0000
  N   N26       1.0  0.86674  0.60077  0.32415  1.0000
  C   C115      1.0  0.86821  0.58202  0.32477  1.0000
  C   C116      1.0  0.89092  0.58905  0.32543  1.0000
  C   C117      1.0  0.90249  0.61206  0.32545  1.0000
  C   C118      1.0  0.85056  0.55955  0.32469  1.0000
  C   C119      1.0  0.82751  0.55283  0.32436  1.0000
  N   N27       1.0  0.81753  0.56540  0.32408  1.0000
  C   C120      1.0  0.79498  0.55290  0.32406  1.0000
  C   C121      1.0  0.79022  0.53076  0.32413  1.0000
  C   C122      1.0  0.81009  0.53073  0.32457  1.0000
  C   C123      1.0  0.77870  0.55969  0.32385  1.0000
  C   C124      1.0  0.78360  0.58218  0.32365  1.0000
  N   N28       1.0  0.80386  0.60089  0.32402  1.0000
  C   C125      1.0  0.80230  0.61958  0.32379  1.0000
  C   C126      1.0  0.77949  0.61230  0.32305  1.0000
  C   C127      1.0  0.76799  0.58929  0.32319  1.0000
  C   C128      1.0  0.81991  0.64215  0.32400  1.0000
  C   C129      1.0  0.81354  0.65890  0.32431  1.0000
  C   C130      1.0  0.79401  0.68688  0.32272  1.0000
  C   C131      1.0  0.80088  0.68126  0.24217  1.0000
  C   C132      1.0  0.81045  0.66745  0.24271  1.0000
  C   C133      1.0  0.75586  0.54257  0.32424  1.0000
  C   C134      1.0  0.71225  0.50447  0.32375  1.0000
  C   C135      1.0  0.72288  0.51498  0.24251  1.0000
  C   C136      1.0  0.74444  0.53378  0.24253  1.0000
  C   C137      1.0  0.85621  0.54237  0.32501  1.0000
  C   C138      1.0  0.85656  0.53197  0.24384  1.0000
  C   C139      1.0  0.85926  0.51314  0.24486  1.0000
  C   C140      1.0  0.86167  0.50424  0.32704  1.0000
  C   C141      1.0  0.91520  0.65872  0.32418  1.0000
  C   C142      1.0  0.92773  0.66454  0.24361  1.0000
  C   C143      1.0  0.96271  0.68676  0.32693  1.0000
  C   C144      1.0  0.95109  0.67837  0.24494  1.0000
  H   H55       1.0  0.95956  0.68161  0.18550  1.0000
  H   H56       1.0  0.91998  0.65803  0.18358  1.0000
  H   H57       1.0  0.89583  0.68497  0.32404  1.0000
  H   H58       1.0  0.85919  0.68504  0.32420  1.0000
  H   H59       1.0  0.84511  0.62039  0.32401  1.0000
  H   H60       1.0  0.82556  0.58142  0.32400  1.0000
  H   H61       1.0  0.91947  0.62161  0.32630  1.0000
  H   H62       1.0  0.89811  0.57928  0.32614  1.0000
  H   H63       1.0  0.85405  0.53754  0.18369  1.0000
  H   H64       1.0  0.85877  0.50565  0.18508  1.0000
  H   H65       1.0  0.81128  0.51661  0.32497  1.0000
  H   H66       1.0  0.77488  0.51668  0.32403  1.0000
  H   H67       1.0  0.77211  0.62190  0.32236  1.0000
  H   H68       1.0  0.75102  0.57957  0.32272  1.0000
  H   H69       1.0  0.75203  0.54055  0.18240  1.0000
  H   H70       1.0  0.71522  0.50861  0.18220  1.0000
  H   H71       1.0  0.81432  0.66294  0.18275  1.0000
  H   H72       1.0  0.79831  0.68666  0.18169  1.0000
  N   N29       1.0  0.69252  0.48586  0.31749  1.0000
  N   N30       1.0  0.86289  0.48570  0.33423  1.0000
  N   N31       1.0  0.98495  0.69881  0.33450  1.0000
  N   N32       1.0  0.78367  0.69881  0.31574  1.0000
  C   C145      1.0  0.40030  0.21160  0.32463  1.0000
  C   C146      1.0  0.40026  0.19161  0.32456  1.0000
  C   C147      1.0  0.42233  0.19623  0.32450  1.0000
  N   N33       1.0  0.43484  0.21884  0.32474  1.0000
  C   C148      1.0  0.42239  0.22901  0.32489  1.0000
  C   C149      1.0  0.42923  0.25215  0.32508  1.0000
  C   C150      1.0  0.45182  0.26970  0.32547  1.0000
  N   N34       1.0  0.47047  0.26807  0.32514  1.0000
  C   C151      1.0  0.48923  0.28829  0.32589  1.0000
  C   C152      1.0  0.48219  0.30396  0.32669  1.0000
  C   C153      1.0  0.45918  0.29253  0.32666  1.0000
  C   C154      1.0  0.51169  0.29311  0.32580  1.0000
  C   C155      1.0  0.51841  0.27677  0.32535  1.0000
  N   N35       1.0  0.50584  0.25423  0.32500  1.0000
  C   C156      1.0  0.51835  0.24419  0.32486  1.0000
  C   C157      1.0  0.54048  0.26155  0.32492  1.0000
  C   C158      1.0  0.54052  0.28146  0.32547  1.0000
  C   C159      1.0  0.51155  0.22111  0.32456  1.0000
  C   C160      1.0  0.48906  0.20352  0.32428  1.0000
  N   N36       1.0  0.47036  0.20507  0.32463  1.0000
  C   C161      1.0  0.45166  0.18482  0.32430  1.0000
  C   C162      1.0  0.45895  0.16929  0.32350  1.0000
  C   C163      1.0  0.48195  0.18080  0.32373  1.0000
  C   C164      1.0  0.42909  0.17986  0.32442  1.0000
  C   C165      1.0  0.41235  0.15675  0.32456  1.0000
  C   C166      1.0  0.38438  0.10922  0.32250  1.0000
  C   C167      1.0  0.39008  0.12176  0.24207  1.0000
  C   C168      1.0  0.40391  0.14513  0.24283  1.0000
  C   C169      1.0  0.52868  0.21539  0.32484  1.0000
  C   C170      1.0  0.56677  0.20988  0.32412  1.0000
  C   C171      1.0  0.55629  0.20999  0.24295  1.0000
  C   C172      1.0  0.53748  0.21272  0.24308  1.0000
  C   C173      1.0  0.52887  0.31594  0.32620  1.0000
  C   C174      1.0  0.53932  0.32671  0.24504  1.0000
  C   C175      1.0  0.55815  0.34823  0.24609  1.0000
  C   C176      1.0  0.56702  0.35952  0.32829  1.0000
  C   C177      1.0  0.41253  0.25859  0.32512  1.0000
  C   C178      1.0  0.40677  0.26531  0.24457  1.0000
  C   C179      1.0  0.38445  0.27801  0.32793  1.0000
  C   C180      1.0  0.39293  0.27483  0.24595  1.0000
  H   H73       1.0  0.38976  0.28011  0.18656  1.0000
  H   H74       1.0  0.41336  0.26412  0.18456  1.0000
  H   H75       1.0  0.38627  0.21296  0.32459  1.0000
  H   H76       1.0  0.38620  0.17625  0.32449  1.0000
  H   H77       1.0  0.45085  0.22682  0.32482  1.0000
  H   H78       1.0  0.48983  0.24625  0.32499  1.0000
  H   H79       1.0  0.44963  0.29996  0.32760  1.0000
  H   H80       1.0  0.49196  0.32093  0.32752  1.0000
  H   H81       1.0  0.53379  0.31862  0.18488  1.0000
  H   H82       1.0  0.56569  0.35522  0.18632  1.0000
  H   H83       1.0  0.55463  0.29677  0.32590  1.0000
  H   H84       1.0  0.55456  0.26030  0.32475  1.0000
  H   H85       1.0  0.44935  0.15232  0.32270  1.0000
  H   H86       1.0  0.49167  0.17355  0.32320  1.0000
  H   H87       1.0  0.53073  0.21354  0.18300  1.0000
  H   H88       1.0  0.56266  0.20866  0.18260  1.0000
  H   H89       1.0  0.40847  0.15354  0.18295  1.0000
  H   H90       1.0  0.38477  0.11382  0.18150  1.0000
  N   N37       1.0  0.58538  0.20875  0.31773  1.0000
  N   N38       1.0  0.58554  0.37929  0.33549  1.0000
  N   N39       1.0  0.37241  0.28821  0.33557  1.0000
  N   N40       1.0  0.37244  0.08696  0.31533  1.0000
  C   C181      1.0  0.85965  0.19080  0.32371  1.0000
  C   C182      1.0  0.87964  0.21075  0.32360  1.0000
  C   C183      1.0  0.87502  0.22821  0.32334  1.0000
  N   N41       1.0  0.85241  0.21810  0.32350  1.0000
  C   C184      1.0  0.84224  0.19548  0.32380  1.0000
  C   C185      1.0  0.81910  0.17917  0.32399  1.0000
  C   C186      1.0  0.80154  0.18421  0.32429  1.0000
  N   N42       1.0  0.80317  0.20449  0.32389  1.0000
  C   C187      1.0  0.78295  0.20302  0.32459  1.0000
  C   C188      1.0  0.76728  0.18031  0.32543  1.0000
  C   C189      1.0  0.77872  0.16874  0.32549  1.0000
  C   C190      1.0  0.77812  0.22066  0.32445  1.0000
  C   C191      1.0  0.79446  0.24372  0.32392  1.0000
  N   N43       1.0  0.81700  0.25370  0.32344  1.0000
  C   C192      1.0  0.82704  0.27625  0.32329  1.0000
  C   C193      1.0  0.80968  0.28101  0.32347  1.0000
  C   C194      1.0  0.78977  0.26114  0.32412  1.0000
  C   C195      1.0  0.85012  0.29253  0.32289  1.0000
  C   C196      1.0  0.86771  0.28763  0.32264  1.0000
  N   N44       1.0  0.86617  0.26738  0.32313  1.0000
  C   C197      1.0  0.88641  0.26894  0.32283  1.0000
  C   C198      1.0  0.90194  0.29175  0.32190  1.0000
  C   C199      1.0  0.89044  0.30325  0.32203  1.0000
  C   C200      1.0  0.89138  0.25133  0.32315  1.0000
  C   C201      1.0  0.91450  0.25771  0.32345  1.0000
  C   C202      1.0  0.96202  0.27725  0.32172  1.0000
  C   C203      1.0  0.94956  0.27041  0.24121  1.0000
  C   C204      1.0  0.92619  0.26085  0.24181  1.0000
  C   C205      1.0  0.85584  0.31537  0.32315  1.0000
  C   C206      1.0  0.86132  0.35897  0.32256  1.0000
  C   C207      1.0  0.86123  0.34838  0.24134  1.0000
  C   C208      1.0  0.85851  0.32683  0.24141  1.0000
  C   C209      1.0  0.75530  0.21502  0.32501  1.0000
  C   C210      1.0  0.74455  0.21470  0.24394  1.0000
  C   C211      1.0  0.72302  0.21200  0.24517  1.0000
  C   C212      1.0  0.71170  0.20955  0.32746  1.0000
  C   C213      1.0  0.81266  0.15604  0.32420  1.0000
  C   C214      1.0  0.80602  0.14353  0.24371  1.0000
  C   C215      1.0  0.79324  0.10854  0.32733  1.0000
  C   C216      1.0  0.79646  0.12016  0.24526  1.0000
  H   H91       1.0  0.79125  0.11170  0.18590  1.0000
  H   H92       1.0  0.80723  0.15127  0.18364  1.0000
  H   H93       1.0  0.85830  0.17542  0.32379  1.0000
  H   H94       1.0  0.89500  0.21206  0.32362  1.0000
  H   H95       1.0  0.84442  0.22613  0.32342  1.0000
  H   H96       1.0  0.82499  0.24567  0.32329  1.0000
  H   H97       1.0  0.77129  0.15176  0.32645  1.0000
  H   H98       1.0  0.75031  0.17311  0.32627  1.0000
  H   H99       1.0  0.75267  0.21729  0.18373  1.0000
  H   H100      1.0  0.71606  0.21258  0.18549  1.0000
  H   H101      1.0  0.77446  0.25994  0.32467  1.0000
  H   H102      1.0  0.81092  0.29634  0.32334  1.0000
  H   H103      1.0  0.91892  0.29913  0.32114  1.0000
  H   H104      1.0  0.89768  0.32022  0.32143  1.0000
  H   H105      1.0  0.85769  0.31926  0.18131  1.0000
  H   H106      1.0  0.86256  0.35607  0.18101  1.0000
  H   H107      1.0  0.91783  0.25698  0.18188  1.0000
  H   H108      1.0  0.95756  0.27298  0.18071  1.0000
  N   N45       1.0  0.86245  0.37871  0.31627  1.0000
  N   N46       1.0  0.69195  0.20834  0.33485  1.0000
  N   N47       1.0  0.78303  0.08630  0.33509  1.0000
  N   N48       1.0  0.98429  0.28756  0.31470  1.0000
  C   C217      1.0  0.22882  0.59556  0.30069  1.0000
  C   C218      1.0  0.22829  0.60986  0.23404  1.0000
  C   C219      1.0  0.22805  0.62942  0.25726  1.0000
  H   H109      1.0  0.22774  0.63918  0.20625  1.0000
  H   H110      1.0  0.22821  0.60625  0.16722  1.0000
  C   C220      1.0  0.22944  0.57648  0.27524  1.0000
  H   H111      1.0  0.22921  0.57318  0.21011  1.0000
  C   C221      1.0  0.47570  0.63536  0.30195  1.0000
  C   C222      1.0  0.46143  0.62054  0.23530  1.0000
  C   C223      1.0  0.44183  0.60075  0.25852  1.0000
  H   H112      1.0  0.43210  0.59070  0.20751  1.0000
  H   H113      1.0  0.46508  0.62407  0.16848  1.0000
  C   C224      1.0  0.49482  0.65504  0.27650  1.0000
  H   H114      1.0  0.49821  0.65806  0.21138  1.0000
  C   C225      1.0  0.43592  0.84246  0.30159  1.0000
  C   C226      1.0  0.45083  0.84304  0.23509  1.0000
  C   C227      1.0  0.47059  0.84322  0.25851  1.0000
  H   H115      1.0  0.48071  0.84358  0.20761  1.0000
  H   H116      1.0  0.44740  0.84321  0.16823  1.0000
  C   C228      1.0  0.41628  0.84191  0.27593  1.0000
  H   H117      1.0  0.41335  0.84232  0.21078  1.0000
  C   C229      1.0  0.86478  0.45334  0.30260  1.0000
  C   C230      1.0  0.86535  0.43905  0.23596  1.0000
  C   C231      1.0  0.86554  0.41947  0.25921  1.0000
  H   H118      1.0  0.86588  0.40973  0.20820  1.0000
  H   H119      1.0  0.86549  0.44269  0.16914  1.0000
  C   C232      1.0  0.86421  0.47244  0.27712  1.0000
  H   H120      1.0  0.86455  0.47579  0.21199  1.0000
  C   C233      1.0  0.61791  0.41355  0.30385  1.0000
  C   C234      1.0  0.63224  0.42840  0.23722  1.0000
  C   C235      1.0  0.65181  0.44818  0.26046  1.0000
  H   H121      1.0  0.66159  0.45826  0.20945  1.0000
  H   H122      1.0  0.62864  0.42490  0.17039  1.0000
  C   C236      1.0  0.59882  0.39387  0.27838  1.0000
  H   H123      1.0  0.59549  0.39089  0.21325  1.0000
  C   C237      1.0  0.65769  0.20643  0.30351  1.0000
  C   C238      1.0  0.64283  0.20587  0.23701  1.0000
  C   C239      1.0  0.62306  0.20569  0.26042  1.0000
  H   H124      1.0  0.61298  0.20535  0.20950  1.0000
  H   H125      1.0  0.64632  0.20571  0.17015  1.0000
  C   C240      1.0  0.67735  0.20697  0.27787  1.0000
  H   H126      1.0  0.68032  0.20655  0.21272  1.0000
  C   C241      1.0  0.06987  0.32969  0.30256  1.0000
  C   C242      1.0  0.05309  0.32135  0.23565  1.0000
  C   C243      1.0  0.03026  0.30983  0.25818  1.0000
  H   H127      1.0  0.01892  0.30439  0.20688  1.0000
  H   H128      1.0  0.05734  0.32375  0.16894  1.0000
  C   C244      1.0  0.09241  0.34151  0.27766  1.0000
  H   H129      1.0  0.09608  0.34364  0.21252  1.0000
  C   C245      1.0  0.74154  0.74226  0.30373  1.0000
  C   C246      1.0  0.74995  0.73384  0.23680  1.0000
  C   C247      1.0  0.76147  0.72255  0.25931  1.0000
  H   H130      1.0  0.76695  0.71666  0.20799  1.0000
  H   H131      1.0  0.74759  0.73569  0.17010  1.0000
  C   C248      1.0  0.72973  0.75296  0.27885  1.0000
  H   H132      1.0  0.72759  0.75445  0.21372  1.0000
  C   C249      1.0  0.32901  0.00139  0.30260  1.0000
  C   C250      1.0  0.33752  0.01824  0.23582  1.0000
  C   C251      1.0  0.34880  0.04105  0.25850  1.0000
  H   H133      1.0  0.35477  0.05244  0.20728  1.0000
  H   H134      1.0  0.33577  0.01406  0.16908  1.0000
  C   C252      1.0  0.31833  0.97888  0.27757  1.0000
  H   H135      1.0  0.31692  0.97528  0.21241  1.0000
  C   C253      1.0  0.02373  0.71916  0.30233  1.0000
  C   C254      1.0  0.04053  0.72747  0.23528  1.0000
  C   C255      1.0  0.06335  0.73900  0.25762  1.0000
  H   H136      1.0  0.07471  0.74441  0.20622  1.0000
  H   H137      1.0  0.03631  0.72502  0.16862  1.0000
  C   C256      1.0  0.00120  0.70732  0.27765  1.0000
  H   H138      1.0  0.99755  0.70513  0.21254  1.0000
  C   C257      1.0  0.35208  0.30666  0.30346  1.0000
  C   C258      1.0  0.34381  0.31514  0.23642  1.0000
  C   C259      1.0  0.33228  0.32644  0.25877  1.0000
  H   H139      1.0  0.32690  0.33239  0.20739  1.0000
  H   H140      1.0  0.34630  0.31336  0.16975  1.0000
  C   C260      1.0  0.36392  0.29594  0.27874  1.0000
  H   H141      1.0  0.36611  0.29445  0.21363  1.0000
  C   C261      1.0  0.76461  0.04752  0.30325  1.0000
  C   C262      1.0  0.75620  0.03072  0.23632  1.0000
  C   C263      1.0  0.74488  0.00790  0.25883  1.0000
  H   H142      1.0  0.73899  0.99655  0.20752  1.0000
  H   H143      1.0  0.75805  0.03496  0.16962  1.0000
  C   C264      1.0  0.77534  0.07005  0.27838  1.0000
  H   H144      1.0  0.77686  0.07371  0.21324  1.0000
  C   C265      1.0  0.28649  0.38413  0.40417  1.0000
  C   C266      1.0  0.29608  0.37035  0.40350  1.0000
  C   C267      1.0  0.34831  0.51658  0.40393  1.0000
  C   C268      1.0  0.36984  0.53540  0.40364  1.0000
  C   C269      1.0  0.23190  0.53396  0.40607  1.0000
  C   C270      1.0  0.23464  0.51515  0.40534  1.0000
  C   C271      1.0  0.16687  0.38158  0.40532  1.0000
  C   C272      1.0  0.14350  0.36771  0.40663  1.0000
  H   H145      1.0  0.13564  0.36226  0.46736  1.0000
  H   H146      1.0  0.17534  0.38605  0.46498  1.0000
  H   H147      1.0  0.23535  0.50824  0.46521  1.0000
  H   H148      1.0  0.23049  0.54018  0.46663  1.0000
  H   H149      1.0  0.34006  0.51093  0.46383  1.0000
  H   H150      1.0  0.37667  0.54284  0.46364  1.0000
  H   H151      1.0  0.30116  0.36714  0.46324  1.0000
  H   H152      1.0  0.28508  0.39063  0.46402  1.0000
  C   C273      1.0  0.68707  0.90448  0.40487  1.0000
  C   C274      1.0  0.70083  0.92786  0.40405  1.0000
  C   C275      1.0  0.55459  0.83384  0.40463  1.0000
  C   C276      1.0  0.53577  0.83655  0.40420  1.0000
  C   C277      1.0  0.53725  0.70003  0.40729  1.0000
  C   C278      1.0  0.55606  0.72158  0.40657  1.0000
  C   C279      1.0  0.68960  0.78739  0.40652  1.0000
  C   C280      1.0  0.70347  0.77789  0.40784  1.0000
  H   H153      1.0  0.70888  0.77548  0.46857  1.0000
  H   H154      1.0  0.68509  0.79139  0.46618  1.0000
  H   H155      1.0  0.56293  0.72921  0.46642  1.0000
  H   H156      1.0  0.53099  0.69240  0.46786  1.0000
  H   H157      1.0  0.56017  0.83123  0.46457  1.0000
  H   H158      1.0  0.52825  0.83590  0.46414  1.0000
  H   H159      1.0  0.70404  0.93618  0.46375  1.0000
  H   H160      1.0  0.68052  0.89661  0.46476  1.0000
  C   C281      1.0  0.16674  0.78470  0.40298  1.0000
  C   C282      1.0  0.14337  0.77511  0.40229  1.0000
  C   C283      1.0  0.23734  0.72286  0.40280  1.0000
  C   C284      1.0  0.23459  0.70132  0.40248  1.0000
  C   C285      1.0  0.37110  0.83928  0.40623  1.0000
  C   C286      1.0  0.34955  0.83653  0.40526  1.0000
  C   C287      1.0  0.28375  0.90428  0.40479  1.0000
  C   C288      1.0  0.29327  0.92765  0.40624  1.0000
  H   H161      1.0  0.29560  0.93546  0.46699  1.0000
  H   H162      1.0  0.27969  0.89575  0.46441  1.0000
  H   H163      1.0  0.34184  0.83575  0.46503  1.0000
  H   H164      1.0  0.37864  0.84061  0.46689  1.0000
  H   H165      1.0  0.23986  0.73105  0.46273  1.0000
  H   H166      1.0  0.23518  0.69445  0.46246  1.0000
  H   H167      1.0  0.13503  0.76999  0.46205  1.0000
  H   H168      1.0  0.17460  0.78607  0.46284  1.0000
  C   C289      1.0  0.80701  0.66473  0.40524  1.0000
  C   C290      1.0  0.79742  0.67852  0.40446  1.0000
  C   C291      1.0  0.74521  0.53230  0.40581  1.0000
  C   C292      1.0  0.72367  0.51348  0.40555  1.0000
  C   C293      1.0  0.86163  0.51492  0.40784  1.0000
  C   C294      1.0  0.85890  0.53373  0.40708  1.0000
  C   C295      1.0  0.92670  0.66729  0.40600  1.0000
  C   C296      1.0  0.95007  0.68116  0.40711  1.0000
  H   H169      1.0  0.95791  0.68661  0.46775  1.0000
  H   H170      1.0  0.91820  0.66284  0.46574  1.0000
  H   H171      1.0  0.85809  0.54060  0.46693  1.0000
  H   H172      1.0  0.86296  0.50867  0.46843  1.0000
  H   H173      1.0  0.75339  0.53795  0.46571  1.0000
  H   H174      1.0  0.71679  0.50603  0.46557  1.0000
  H   H175      1.0  0.79226  0.68170  0.46415  1.0000
  H   H176      1.0  0.80833  0.65820  0.46513  1.0000
  C   C297      1.0  0.40641  0.14433  0.40537  1.0000
  C   C298      1.0  0.39263  0.12096  0.40437  1.0000
  C   C299      1.0  0.53892  0.21502  0.40635  1.0000
  C   C300      1.0  0.55774  0.21231  0.40598  1.0000
  C   C301      1.0  0.55629  0.34879  0.40908  1.0000
  C   C302      1.0  0.53748  0.32724  0.40829  1.0000
  C   C303      1.0  0.40386  0.26145  0.40695  1.0000
  C   C304      1.0  0.38999  0.27095  0.40809  1.0000
  H   H177      1.0  0.38449  0.27333  0.46874  1.0000
  H   H178      1.0  0.40827  0.25740  0.46668  1.0000
  H   H179      1.0  0.53055  0.31958  0.46812  1.0000
  H   H180      1.0  0.56249  0.35638  0.46968  1.0000
  H   H181      1.0  0.53326  0.21758  0.46628  1.0000
  H   H182      1.0  0.56518  0.21289  0.46595  1.0000
  H   H183      1.0  0.38937  0.11259  0.46400  1.0000
  H   H184      1.0  0.41286  0.15215  0.46535  1.0000
  C   C305      1.0  0.92682  0.26418  0.40436  1.0000
  C   C306      1.0  0.95019  0.27379  0.40350  1.0000
  C   C307      1.0  0.85621  0.32600  0.40471  1.0000
  C   C308      1.0  0.85891  0.34753  0.40440  1.0000
  C   C309      1.0  0.72241  0.20955  0.40815  1.0000
  C   C310      1.0  0.74396  0.21228  0.40718  1.0000
  C   C311      1.0  0.80974  0.14454  0.40612  1.0000
  C   C312      1.0  0.80025  0.12117  0.40740  1.0000
  H   H185      1.0  0.79782  0.11331  0.46812  1.0000
  H   H186      1.0  0.81374  0.15302  0.46579  1.0000
  H   H187      1.0  0.75161  0.21304  0.46695  1.0000
  H   H188      1.0  0.71481  0.20817  0.46881  1.0000
  H   H189      1.0  0.85362  0.31778  0.46462  1.0000
  H   H190      1.0  0.85828  0.35437  0.46440  1.0000
  H   H191      1.0  0.95851  0.27888  0.46318  1.0000
  H   H192      1.0  0.91893  0.26283  0.46425  1.0000
  C   C313      1.0  0.22829  0.63557  0.34831  1.0000
  C   C314      1.0  0.22856  0.62112  0.41552  1.0000
  C   C315      1.0  0.22901  0.60164  0.39172  1.0000
  H   H193      1.0  0.22951  0.59186  0.44223  1.0000
  O   O1        1.0  0.22933  0.62591  0.50476  1.0000
  H   H194      1.0  0.21376  0.61879  0.52528  1.0000
  C   C316      1.0  0.22829  0.65511  0.37190  1.0000
  H   H195      1.0  0.22620  0.65760  0.43604  1.0000
  C   C317      1.0  0.43563  0.59484  0.34956  1.0000
  C   C318      1.0  0.45005  0.60955  0.41679  1.0000
  C   C319      1.0  0.46957  0.62947  0.39298  1.0000
  H   H196      1.0  0.47933  0.63973  0.44349  1.0000
  O   O2        1.0  0.44523  0.60553  0.50603  1.0000
  H   H197      1.0  0.45230  0.59704  0.52643  1.0000
  C   C320      1.0  0.41606  0.57533  0.37317  1.0000
  H   H198      1.0  0.41346  0.57081  0.43737  1.0000
  C   C321      1.0  0.47636  0.84287  0.34962  1.0000
  C   C322      1.0  0.46156  0.84254  0.41669  1.0000
  C   C323      1.0  0.44167  0.84215  0.39268  1.0000
  H   H199      1.0  0.43134  0.84162  0.44307  1.0000
  O   O3        1.0  0.46545  0.84168  0.50596  1.0000
  H   H200      1.0  0.47390  0.85723  0.52656  1.0000
  C   C324      1.0  0.49584  0.84280  0.37342  1.0000
  H   H201      1.0  0.50028  0.84471  0.43765  1.0000
  C   C325      1.0  0.86523  0.41329  0.35026  1.0000
  C   C326      1.0  0.86492  0.42773  0.41746  1.0000
  C   C327      1.0  0.86451  0.44723  0.39363  1.0000
  H   H202      1.0  0.86399  0.45700  0.44412  1.0000
  O   O4        1.0  0.86409  0.42292  0.50671  1.0000
  H   H203      1.0  0.87964  0.43001  0.52715  1.0000
  C   C328      1.0  0.86517  0.39373  0.37389  1.0000
  H   H204      1.0  0.86710  0.39116  0.43807  1.0000
  C   C329      1.0  0.65793  0.45404  0.35151  1.0000
  C   C330      1.0  0.64345  0.43930  0.41872  1.0000
  C   C331      1.0  0.62396  0.41939  0.39489  1.0000
  H   H205      1.0  0.61415  0.40910  0.44538  1.0000
  O   O5        1.0  0.64820  0.44327  0.50796  1.0000
  H   H206      1.0  0.64111  0.45176  0.52839  1.0000
  C   C332      1.0  0.67749  0.47354  0.37514  1.0000
  H   H207      1.0  0.68003  0.47802  0.43934  1.0000
  C   C333      1.0  0.61721  0.20602  0.35151  1.0000
  C   C334      1.0  0.63195  0.20631  0.41860  1.0000
  C   C335      1.0  0.65186  0.20671  0.39459  1.0000
  H   H208      1.0  0.66215  0.20722  0.44500  1.0000
  O   O6        1.0  0.62799  0.20717  0.50786  1.0000
  H   H209      1.0  0.61950  0.19161  0.52850  1.0000
  C   C336      1.0  0.59772  0.20610  0.37531  1.0000
  H   H210      1.0  0.59325  0.20423  0.43957  1.0000
  C   C337      1.0  0.02304  0.30602  0.34893  1.0000
  C   C338      1.0  0.03984  0.31410  0.41636  1.0000
  C   C339      1.0  0.06270  0.32583  0.39328  1.0000
  H   H211      1.0  0.07418  0.33161  0.44410  1.0000
  O   O7        1.0  0.03465  0.31167  0.50558  1.0000
  H   H212      1.0  0.03315  0.29732  0.52360  1.0000
  C   C340      1.0  0.00034  0.29505  0.37222  1.0000
  H   H213      1.0  0.99635  0.29315  0.43697  1.0000
  C   C341      1.0  0.76522  0.71913  0.35005  1.0000
  C   C342      1.0  0.75708  0.72783  0.41750  1.0000
  C   C343      1.0  0.74535  0.73895  0.39445  1.0000
  H   H214      1.0  0.73952  0.74463  0.44527  1.0000
  O   O8        1.0  0.75945  0.72507  0.50670  1.0000
  H   H215      1.0  0.77376  0.73793  0.52479  1.0000
  C   C344      1.0  0.77621  0.70744  0.37330  1.0000
  H   H216      1.0  0.77816  0.70543  0.43804  1.0000
  C   C345      1.0  0.35210  0.04818  0.34930  1.0000
  C   C346      1.0  0.34329  0.03130  0.41661  1.0000
  C   C347      1.0  0.33219  0.00846  0.39338  1.0000
  H   H217      1.0  0.32644  0.99693  0.44412  1.0000
  O   O9        1.0  0.34593  0.03639  0.50586  1.0000
  H   H218      1.0  0.33306  0.03787  0.52379  1.0000
  C   C348      1.0  0.36379  0.07084  0.37274  1.0000
  H   H219      1.0  0.36578  0.07477  0.43752  1.0000
  C   C349      1.0  0.07055  0.74287  0.34831  1.0000
  C   C350      1.0  0.05372  0.73482  0.41587  1.0000
  C   C351      1.0  0.03087  0.72309  0.39299  1.0000
  H   H220      1.0  0.01937  0.71733  0.44391  1.0000
  O   O10       1.0  0.05888  0.73732  0.50504  1.0000
  H   H221      1.0  0.06038  0.75168  0.52280  1.0000
  C   C352      1.0  0.09323  0.75384  0.37140  1.0000
  H   H222      1.0  0.09720  0.75575  0.43612  1.0000
  C   C353      1.0  0.32836  0.32978  0.34947  1.0000
  C   C354      1.0  0.33637  0.32100  0.41702  1.0000
  C   C355      1.0  0.34811  0.30987  0.39412  1.0000
  H   H223      1.0  0.35384  0.30413  0.44502  1.0000
  O   O11       1.0  0.33382  0.32367  0.50620  1.0000
  H   H224      1.0  0.31945  0.31081  0.52398  1.0000
  C   C356      1.0  0.31737  0.34149  0.37258  1.0000
  H   H225      1.0  0.31543  0.34355  0.43731  1.0000
  C   C357      1.0  0.74146  0.00069  0.34958  1.0000
  C   C358      1.0  0.75017  0.01751  0.41702  1.0000
  C   C359      1.0  0.76131  0.04036  0.39396  1.0000
  H   H226      1.0  0.76699  0.05185  0.44479  1.0000
  O   O12       1.0  0.74742  0.01233  0.50623  1.0000
  H   H227      1.0  0.76026  0.01083  0.52419  1.0000
  C   C360      1.0  0.72973  0.97800  0.37284  1.0000
  H   H228      1.0  0.72761  0.97402  0.43759  1.0000
