data_image0
_chemical_formula_structural       NCNCO2C6H6N2C6H6N2C6H6N2C6H6N2C6H6N2C6H6N2C5H2NO2CHC2NC4H2NO2CHC2NC4H2NO2CHC2HC2NHNO2CHC2HC2NHNO2CHC2HC2NHNO2CHC2HC2NHNO2CHC2HC2NHNO2CHC2HC2NHNO2CHC12H5CNC2NHN2C12H5CNC2NHN2C12H5CNC2NHN2C12H5CNC2NHN2C12H5CNC2NHN2C12H5CNC2NHN2CHC2NHCHC2HC2NHNO2CHC2HC2NHNO2CHC2NC4H2NO2CHC2NC4H2NO2CHC2NC4H2NO2CHC2NC4H2NO2CHC2NC4H2NO2CHC2NC4H2NO2CH
_chemical_formula_sum              "N72 C234 O36 H126"
_cell_length_a       91.0451
_cell_length_b       91.0451
_cell_length_c       14.9927
_cell_angle_alpha    90
_cell_angle_beta     90
_cell_angle_gamma    120

_space_group_name_H-M_alt    "P 1"
_space_group_IT_number       1

loop_
  _space_group_symop_operation_xyz
  'x, y, z'

loop_
  _atom_site_type_symbol
  _atom_site_label
  _atom_site_symmetry_multiplicity
  _atom_site_fract_x
  _atom_site_fract_y
  _atom_site_fract_z
  _atom_site_occupancy
  N   N1        1.0  0.01552  0.51714  0.26902  1.0000
  C   C1        1.0  0.00910  0.50349  0.32444  1.0000
  N   N2        1.0  0.01463  0.48671  0.43409  1.0000
  C   C2        1.0  0.02063  0.50092  0.37670  1.0000
  O   O1        1.0  0.01867  0.49119  0.51380  1.0000
  O   O2        1.0  0.02027  0.47715  0.41195  1.0000
  C   C3        1.0  0.18015  0.61597  0.33260  1.0000
  C   C4        1.0  0.09931  0.56242  0.31938  1.0000
  C   C5        1.0  0.11715  0.57128  0.32078  1.0000
  C   C6        1.0  0.17275  0.62571  0.30468  1.0000
  C   C7        1.0  0.18247  0.64353  0.29901  1.0000
  C   C8        1.0  0.19971  0.65209  0.32372  1.0000
  H   H1        1.0  0.09315  0.56921  0.31633  1.0000
  H   H2        1.0  0.12326  0.58423  0.31771  1.0000
  H   H3        1.0  0.16032  0.61989  0.28534  1.0000
  H   H4        1.0  0.17693  0.65022  0.27633  1.0000
  H   H5        1.0  0.17633  0.52453  0.31227  1.0000
  H   H6        1.0  0.15998  0.53847  0.30927  1.0000
  N   N3        1.0  0.15352  0.58894  0.32953  1.0000
  N   N4        1.0  0.20935  0.66870  0.31316  1.0000
  C   C9        1.0  0.38461  0.56429  0.33225  1.0000
  C   C10       1.0  0.43817  0.53700  0.31946  1.0000
  C   C11       1.0  0.42931  0.54598  0.32084  1.0000
  C   C12       1.0  0.37488  0.54712  0.30496  1.0000
  C   C13       1.0  0.35705  0.53899  0.29925  1.0000
  C   C14       1.0  0.34850  0.54771  0.32332  1.0000
  H   H7        1.0  0.43138  0.52405  0.31643  1.0000
  H   H8        1.0  0.41635  0.53914  0.31772  1.0000
  H   H9        1.0  0.38069  0.54047  0.28615  1.0000
  H   H10       1.0  0.35036  0.52673  0.27709  1.0000
  H   H11       1.0  0.47607  0.65190  0.31258  1.0000
  H   H12       1.0  0.46213  0.62161  0.30944  1.0000
  N   N5        1.0  0.41165  0.56469  0.32941  1.0000
  N   N6        1.0  0.33189  0.54073  0.31283  1.0000
  C   C15       1.0  0.43631  0.82040  0.33201  1.0000
  C   C16       1.0  0.46363  0.90125  0.31966  1.0000
  C   C17       1.0  0.45464  0.88341  0.32101  1.0000
  C   C18       1.0  0.45353  0.82788  0.30547  1.0000
  C   C19       1.0  0.46166  0.81818  0.29972  1.0000
  C   C20       1.0  0.45289  0.80087  0.32295  1.0000
  H   H13       1.0  0.47657  0.90741  0.31661  1.0000
  H   H14       1.0  0.46148  0.87730  0.31784  1.0000
  H   H15       1.0  0.46022  0.84037  0.28725  1.0000
  H   H16       1.0  0.47395  0.82378  0.27814  1.0000
  H   H17       1.0  0.34871  0.82426  0.31220  1.0000
  H   H18       1.0  0.37900  0.84061  0.30924  1.0000
  N   N7        1.0  0.43592  0.84705  0.32942  1.0000
  N   N8        1.0  0.45988  0.79124  0.31250  1.0000
  C   C21       1.0  0.82035  0.38409  0.33315  1.0000
  C   C22       1.0  0.90126  0.43728  0.33821  1.0000
  C   C23       1.0  0.88342  0.42853  0.33904  1.0000
  C   C24       1.0  0.82770  0.37427  0.30597  1.0000
  C   C25       1.0  0.81790  0.35645  0.30036  1.0000
  C   C26       1.0  0.80064  0.34799  0.32455  1.0000
  H   H19       1.0  0.90743  0.43057  0.34596  1.0000
  H   H20       1.0  0.87726  0.41569  0.34896  1.0000
  H   H21       1.0  0.84014  0.38001  0.28685  1.0000
  H   H22       1.0  0.82340  0.34970  0.27812  1.0000
  H   H23       1.0  0.82469  0.47576  0.30867  1.0000
  H   H24       1.0  0.84092  0.46169  0.30593  1.0000
  N   N9        1.0  0.84707  0.41102  0.33015  1.0000
  N   N10       1.0  0.79095  0.33138  0.31401  1.0000
  C   C27       1.0  0.61652  0.43638  0.33278  1.0000
  C   C28       1.0  0.56334  0.46412  0.33829  1.0000
  C   C29       1.0  0.57209  0.45503  0.33913  1.0000
  C   C30       1.0  0.62635  0.45361  0.30669  1.0000
  C   C31       1.0  0.64417  0.46165  0.30105  1.0000
  C   C32       1.0  0.65263  0.45278  0.32403  1.0000
  H   H25       1.0  0.57006  0.47700  0.34610  1.0000
  H   H26       1.0  0.58492  0.46169  0.34906  1.0000
  H   H27       1.0  0.62061  0.46036  0.28846  1.0000
  H   H28       1.0  0.65093  0.47395  0.27964  1.0000
  H   H29       1.0  0.52485  0.34906  0.30836  1.0000
  H   H30       1.0  0.53892  0.37936  0.30560  1.0000
  N   N11       1.0  0.58959  0.43618  0.33003  1.0000
  N   N12       1.0  0.66922  0.45970  0.31355  1.0000
  C   C33       1.0  0.56418  0.18020  0.33326  1.0000
  C   C34       1.0  0.53650  0.09931  0.33778  1.0000
  C   C35       1.0  0.54558  0.11714  0.33866  1.0000
  C   C36       1.0  0.54703  0.17287  0.30578  1.0000
  C   C37       1.0  0.53900  0.18265  0.30029  1.0000
  C   C38       1.0  0.54776  0.19989  0.32498  1.0000
  H   H31       1.0  0.52361  0.09313  0.34556  1.0000
  H   H32       1.0  0.53890  0.12330  0.34856  1.0000
  H   H33       1.0  0.54036  0.16044  0.28628  1.0000
  H   H34       1.0  0.52677  0.17717  0.27776  1.0000
  H   H35       1.0  0.65153  0.17588  0.30874  1.0000
  H   H36       1.0  0.62123  0.15966  0.30578  1.0000
  N   N13       1.0  0.56441  0.15349  0.32999  1.0000
  N   N14       1.0  0.54086  0.20958  0.31441  1.0000
  C   C39       1.0  0.04441  0.52659  0.30901  1.0000
  C   C40       1.0  0.03225  0.52844  0.25945  1.0000
  C   C41       1.0  0.99115  0.49300  0.32887  1.0000
  C   C42       1.0  0.98028  0.48849  0.25347  1.0000
  C   C43       1.0  0.96256  0.47827  0.26695  1.0000
  H   H37       1.0  0.95469  0.47468  0.21267  1.0000
  H   H38       1.0  0.03577  0.53829  0.21589  1.0000
  N   N15       1.0  0.98714  0.49352  0.16674  1.0000
  O   O3        1.0  0.98184  0.50237  0.12970  1.0000
  O   O4        1.0  0.98356  0.48093  0.11805  1.0000
  C   C44       1.0  0.06156  0.53843  0.30027  1.0000
  H   H39       1.0  0.06487  0.54954  0.27199  1.0000
  C   C45       1.0  0.47401  0.51794  0.30922  1.0000
  C   C46       1.0  0.47216  0.50393  0.25966  1.0000
  N   N16       1.0  0.48347  0.49850  0.26920  1.0000
  C   C47       1.0  0.49712  0.50574  0.32457  1.0000
  C   C48       1.0  0.50761  0.49828  0.32899  1.0000
  C   C49       1.0  0.51212  0.49192  0.25360  1.0000
  C   C50       1.0  0.52234  0.48442  0.26706  1.0000
  H   H40       1.0  0.52593  0.48013  0.21278  1.0000
  H   H41       1.0  0.46231  0.49758  0.21612  1.0000
  N   N17       1.0  0.50708  0.49374  0.16687  1.0000
  O   O5        1.0  0.49823  0.47959  0.12986  1.0000
  O   O6        1.0  0.51967  0.50275  0.11814  1.0000
  C   C51       1.0  0.46216  0.52324  0.30051  1.0000
  H   H42       1.0  0.45105  0.51543  0.27224  1.0000
  C   C52       1.0  0.48270  0.95616  0.30933  1.0000
  C   C53       1.0  0.49671  0.96831  0.25972  1.0000
  N   N18       1.0  0.50213  0.98504  0.26920  1.0000
  C   C54       1.0  0.49491  0.99147  0.32457  1.0000
  C   C55       1.0  0.50236  0.00942  0.32891  1.0000
  C   C56       1.0  0.50871  0.02028  0.25347  1.0000
  C   C57       1.0  0.51621  0.03800  0.26687  1.0000
  H   H43       1.0  0.52050  0.04587  0.21256  1.0000
  H   H44       1.0  0.50304  0.96479  0.21617  1.0000
  N   N19       1.0  0.50688  0.01341  0.16677  1.0000
  O   O7        1.0  0.52103  0.01870  0.12972  1.0000
  O   O8        1.0  0.49786  0.01697  0.11805  1.0000
  C   C58       1.0  0.47739  0.93900  0.30065  1.0000
  H   H45       1.0  0.48518  0.93570  0.27227  1.0000
  C   C59       1.0  0.28291  0.53586  0.27225  1.0000
  C   C60       1.0  0.29952  0.53848  0.28235  1.0000
  H   H46       1.0  0.30861  0.54614  0.23738  1.0000
  C   C61       1.0  0.22307  0.52429  0.32942  1.0000
  C   C62       1.0  0.23041  0.52101  0.25478  1.0000
  N   N20       1.0  0.24549  0.52156  0.26317  1.0000
  H   H47       1.0  0.22505  0.51913  0.19285  1.0000
  N   N21       1.0  0.27894  0.54362  0.20166  1.0000
  O   O9        1.0  0.28101  0.53866  0.12696  1.0000
  O   O10       1.0  0.28779  0.55952  0.20478  1.0000
  C   C63       1.0  0.20898  0.52612  0.31980  1.0000
  H   H48       1.0  0.19923  0.51792  0.28301  1.0000
  C   C64       1.0  0.46471  0.74711  0.27229  1.0000
  C   C65       1.0  0.46212  0.76113  0.28220  1.0000
  H   H49       1.0  0.45442  0.76253  0.23739  1.0000
  C   C66       1.0  0.47635  0.69889  0.32955  1.0000
  C   C67       1.0  0.47960  0.70949  0.25486  1.0000
  N   N22       1.0  0.47902  0.72401  0.26318  1.0000
  H   H50       1.0  0.48140  0.70597  0.19287  1.0000
  N   N23       1.0  0.45690  0.73534  0.20189  1.0000
  O   O11       1.0  0.46183  0.74232  0.12707  1.0000
  O   O12       1.0  0.44101  0.72831  0.20521  1.0000
  C   C68       1.0  0.47449  0.68295  0.31996  1.0000
  H   H51       1.0  0.48267  0.68140  0.28299  1.0000
  C   C69       1.0  0.25343  0.71770  0.27220  1.0000
  C   C70       1.0  0.23945  0.70108  0.28233  1.0000
  H   H52       1.0  0.23801  0.69199  0.23735  1.0000
  C   C71       1.0  0.30171  0.77754  0.32931  1.0000
  C   C72       1.0  0.29107  0.77021  0.25474  1.0000
  N   N24       1.0  0.27654  0.75512  0.26315  1.0000
  H   H53       1.0  0.29455  0.77557  0.19280  1.0000
  N   N25       1.0  0.26514  0.72168  0.20144  1.0000
  O   O13       1.0  0.25808  0.71962  0.12684  1.0000
  O   O14       1.0  0.27220  0.71284  0.20433  1.0000
  C   C73       1.0  0.31765  0.79162  0.31963  1.0000
  H   H54       1.0  0.31918  0.80140  0.28321  1.0000
  C   C74       1.0  0.71814  0.46451  0.27263  1.0000
  C   C75       1.0  0.70152  0.46187  0.28301  1.0000
  H   H55       1.0  0.69240  0.45417  0.23828  1.0000
  C   C76       1.0  0.77807  0.47629  0.32810  1.0000
  C   C77       1.0  0.77066  0.47955  0.25372  1.0000
  N   N26       1.0  0.75557  0.47896  0.26252  1.0000
  H   H56       1.0  0.77597  0.48142  0.19164  1.0000
  N   N27       1.0  0.72207  0.45671  0.20207  1.0000
  O   O15       1.0  0.71993  0.46160  0.12734  1.0000
  O   O16       1.0  0.71325  0.44081  0.20555  1.0000
  C   C78       1.0  0.79212  0.47440  0.31794  1.0000
  H   H57       1.0  0.80198  0.48276  0.28230  1.0000
  C   C79       1.0  0.53607  0.25371  0.27279  1.0000
  C   C80       1.0  0.53873  0.23975  0.28338  1.0000
  H   H58       1.0  0.54640  0.23830  0.23862  1.0000
  C   C81       1.0  0.52433  0.30191  0.32797  1.0000
  C   C82       1.0  0.52107  0.29123  0.25365  1.0000
  N   N28       1.0  0.52165  0.27671  0.26256  1.0000
  H   H59       1.0  0.51920  0.29465  0.19155  1.0000
  N   N29       1.0  0.54384  0.26541  0.20205  1.0000
  O   O17       1.0  0.53892  0.25833  0.12744  1.0000
  O   O18       1.0  0.55974  0.27249  0.20536  1.0000
  C   C83       1.0  0.52621  0.31784  0.31773  1.0000
  H   H60       1.0  0.51787  0.31933  0.28187  1.0000
  C   C84       1.0  0.74683  0.28245  0.27265  1.0000
  C   C85       1.0  0.76080  0.29907  0.28305  1.0000
  H   H61       1.0  0.76222  0.30819  0.23834  1.0000
  C   C86       1.0  0.69867  0.22250  0.32819  1.0000
  C   C87       1.0  0.70934  0.22991  0.25381  1.0000
  N   N30       1.0  0.72383  0.24503  0.26262  1.0000
  H   H62       1.0  0.70588  0.22465  0.19168  1.0000
  N   N31       1.0  0.73512  0.27850  0.20198  1.0000
  O   O19       1.0  0.74218  0.28064  0.12732  1.0000
  O   O20       1.0  0.72804  0.28732  0.20525  1.0000
  C   C88       1.0  0.68273  0.20844  0.31805  1.0000
  H   H63       1.0  0.68122  0.19866  0.28158  1.0000
  C   C89       1.0  0.12643  0.56262  0.32717  1.0000
  C   C90       1.0  0.18016  0.56304  0.34334  1.0000
  C   C91       1.0  0.11703  0.54467  0.33223  1.0000
  C   C92       1.0  0.09918  0.53579  0.33118  1.0000
  C   C93       1.0  0.09009  0.54452  0.32397  1.0000
  C   C94       1.0  0.20718  0.64256  0.35211  1.0000
  C   C95       1.0  0.19755  0.62480  0.35651  1.0000
  C   C96       1.0  0.19769  0.57197  0.36442  1.0000
  C   C97       1.0  0.20725  0.56374  0.36653  1.0000
  C   C98       1.0  0.19969  0.54634  0.34647  1.0000
  C   C99       1.0  0.18219  0.53721  0.32624  1.0000
  C   C100      1.0  0.17257  0.54546  0.32513  1.0000
  H   H64       1.0  0.09284  0.52283  0.33560  1.0000
  H   H65       1.0  0.20353  0.61841  0.37701  1.0000
  H   H66       1.0  0.21980  0.64850  0.36805  1.0000
  H   H67       1.0  0.20380  0.58464  0.37891  1.0000
  H   H68       1.0  0.21990  0.57066  0.38171  1.0000
  C   C101      1.0  0.17073  0.57167  0.33935  1.0000
  N   N32       1.0  0.17886  0.58887  0.33883  1.0000
  C   C102      1.0  0.17073  0.59791  0.33403  1.0000
  C   C103      1.0  0.14453  0.57166  0.33013  1.0000
  N   N33       1.0  0.15351  0.56338  0.33482  1.0000
  H   H69       1.0  0.12305  0.53776  0.33763  1.0000
  N   N34       1.0  0.20980  0.53979  0.34872  1.0000
  N   N35       1.0  0.07324  0.53532  0.32551  1.0000
  C   C104      1.0  0.43797  0.56392  0.32724  1.0000
  C   C105      1.0  0.43755  0.61723  0.34334  1.0000
  C   C106      1.0  0.45592  0.57247  0.33236  1.0000
  C   C107      1.0  0.46480  0.56349  0.33136  1.0000
  C   C108      1.0  0.45607  0.54567  0.32417  1.0000
  C   C109      1.0  0.35802  0.56475  0.35107  1.0000
  C   C110      1.0  0.37578  0.57289  0.35551  1.0000
  C   C111      1.0  0.42862  0.62583  0.36437  1.0000
  C   C112      1.0  0.43686  0.64363  0.36659  1.0000
  C   C113      1.0  0.45426  0.65345  0.34663  1.0000
  C   C114      1.0  0.46339  0.64508  0.32645  1.0000
  C   C115      1.0  0.45514  0.62723  0.32526  1.0000
  H   H70       1.0  0.47776  0.57011  0.33583  1.0000
  H   H71       1.0  0.38217  0.58529  0.37556  1.0000
  H   H72       1.0  0.35208  0.57145  0.36656  1.0000
  H   H73       1.0  0.41594  0.61927  0.37879  1.0000
  H   H74       1.0  0.42994  0.64936  0.38172  1.0000
  C   C116      1.0  0.42893  0.59917  0.33929  1.0000
  N   N36       1.0  0.41172  0.59011  0.33865  1.0000
  C   C117      1.0  0.40268  0.57293  0.33382  1.0000
  C   C118      1.0  0.42893  0.57298  0.33013  1.0000
  N   N37       1.0  0.43721  0.59023  0.33486  1.0000
  H   H75       1.0  0.46282  0.58539  0.33777  1.0000
  N   N38       1.0  0.46082  0.67012  0.34897  1.0000
  N   N39       1.0  0.46527  0.53803  0.32571  1.0000
  C   C119      1.0  0.43670  0.87414  0.32743  1.0000
  C   C120      1.0  0.38338  0.82042  0.34315  1.0000
  C   C121      1.0  0.42816  0.88355  0.33262  1.0000
  C   C122      1.0  0.43714  0.90140  0.33166  1.0000
  C   C123      1.0  0.45496  0.91048  0.32443  1.0000
  C   C124      1.0  0.43580  0.79330  0.34989  1.0000
  C   C125      1.0  0.42767  0.80293  0.35445  1.0000
  C   C126      1.0  0.37478  0.80288  0.36409  1.0000
  C   C127      1.0  0.35699  0.79332  0.36620  1.0000
  C   C128      1.0  0.34716  0.80090  0.34622  1.0000
  C   C129      1.0  0.35553  0.81840  0.32611  1.0000
  C   C130      1.0  0.37339  0.82801  0.32507  1.0000
  H   H76       1.0  0.43052  0.90774  0.33616  1.0000
  H   H77       1.0  0.41524  0.79688  0.37394  1.0000
  H   H78       1.0  0.42908  0.78064  0.36486  1.0000
  H   H79       1.0  0.38134  0.79676  0.37850  1.0000
  H   H80       1.0  0.35125  0.78067  0.38126  1.0000
  C   C131      1.0  0.40144  0.82985  0.33917  1.0000
  N   N40       1.0  0.41050  0.82170  0.33843  1.0000
  C   C132      1.0  0.42768  0.82983  0.33366  1.0000
  C   C133      1.0  0.42764  0.85604  0.33022  1.0000
  N   N41       1.0  0.41038  0.84707  0.33487  1.0000
  H   H81       1.0  0.41524  0.87753  0.33803  1.0000
  N   N42       1.0  0.33049  0.79078  0.34841  1.0000
  N   N43       1.0  0.46260  0.92733  0.32596  1.0000
  C   C134      1.0  0.87423  0.43718  0.32744  1.0000
  C   C135      1.0  0.82069  0.43720  0.34100  1.0000
  C   C136      1.0  0.88368  0.45496  0.31385  1.0000
  C   C137      1.0  0.90153  0.46371  0.31197  1.0000
  C   C138      1.0  0.91052  0.45503  0.32567  1.0000
  C   C139      1.0  0.79321  0.35760  0.35229  1.0000
  C   C140      1.0  0.80293  0.37536  0.35659  1.0000
  C   C141      1.0  0.80318  0.42838  0.36253  1.0000
  C   C142      1.0  0.79369  0.43669  0.36452  1.0000
  C   C143      1.0  0.80132  0.45407  0.34392  1.0000
  C   C144      1.0  0.81879  0.46310  0.32312  1.0000
  C   C145      1.0  0.82834  0.45477  0.32216  1.0000
  H   H82       1.0  0.90794  0.47655  0.30155  1.0000
  H   H83       1.0  0.79698  0.38182  0.37655  1.0000
  H   H84       1.0  0.78058  0.35172  0.36789  1.0000
  H   H85       1.0  0.79702  0.41573  0.37754  1.0000
  H   H86       1.0  0.78106  0.42984  0.38009  1.0000
  C   C146      1.0  0.83005  0.42850  0.33754  1.0000
  N   N44       1.0  0.82181  0.41129  0.33783  1.0000
  C   C147      1.0  0.82985  0.40215  0.33416  1.0000
  C   C148      1.0  0.85614  0.42829  0.32987  1.0000
  N   N45       1.0  0.84727  0.43670  0.33330  1.0000
  H   H87       1.0  0.87768  0.46180  0.30421  1.0000
  N   N46       1.0  0.79125  0.46068  0.34614  1.0000
  N   N47       1.0  0.92735  0.46382  0.32186  1.0000
  C   C149      1.0  0.56343  0.43718  0.32747  1.0000
  C   C150      1.0  0.56340  0.38361  0.34075  1.0000
  C   C151      1.0  0.54565  0.42885  0.31389  1.0000
  C   C152      1.0  0.53690  0.43796  0.31202  1.0000
  C   C153      1.0  0.54560  0.45564  0.32571  1.0000
  C   C154      1.0  0.64301  0.43568  0.35067  1.0000
  C   C155      1.0  0.62525  0.42763  0.35504  1.0000
  C   C156      1.0  0.57222  0.37492  0.36234  1.0000
  C   C157      1.0  0.56391  0.35713  0.36436  1.0000
  C   C158      1.0  0.54654  0.34738  0.34371  1.0000
  C   C159      1.0  0.53751  0.35582  0.32284  1.0000
  C   C160      1.0  0.54583  0.37369  0.32188  1.0000
  H   H88       1.0  0.52407  0.43154  0.30161  1.0000
  H   H89       1.0  0.61879  0.41518  0.37418  1.0000
  H   H90       1.0  0.64888  0.42888  0.36542  1.0000
  H   H91       1.0  0.58488  0.38143  0.37739  1.0000
  H   H92       1.0  0.57076  0.35134  0.37998  1.0000
  C   C161      1.0  0.57210  0.40167  0.33732  1.0000
  N   N48       1.0  0.58931  0.41065  0.33751  1.0000
  C   C162      1.0  0.59846  0.42783  0.33390  1.0000
  C   C163      1.0  0.57232  0.42798  0.32982  1.0000
  N   N49       1.0  0.56391  0.41071  0.33320  1.0000
  H   H93       1.0  0.53881  0.41602  0.30422  1.0000
  N   N50       1.0  0.53993  0.33070  0.34600  1.0000
  N   N51       1.0  0.53680  0.46367  0.32196  1.0000
  C   C164      1.0  0.56342  0.12634  0.32709  1.0000
  C   C165      1.0  0.61698  0.17989  0.34082  1.0000
  C   C166      1.0  0.57176  0.11690  0.31351  1.0000
  C   C167      1.0  0.56267  0.09905  0.31162  1.0000
  C   C168      1.0  0.54499  0.09005  0.32527  1.0000
  C   C169      1.0  0.56479  0.20730  0.35300  1.0000
  C   C170      1.0  0.57285  0.19760  0.35715  1.0000
  C   C171      1.0  0.62567  0.19740  0.36242  1.0000
  C   C172      1.0  0.64346  0.20688  0.36454  1.0000
  C   C173      1.0  0.65321  0.19925  0.34399  1.0000
  C   C174      1.0  0.64477  0.18178  0.32310  1.0000
  C   C175      1.0  0.62690  0.17224  0.32199  1.0000
  H   H94       1.0  0.56910  0.09264  0.30129  1.0000
  H   H95       1.0  0.58524  0.20353  0.37731  1.0000
  H   H96       1.0  0.57153  0.21992  0.36887  1.0000
  H   H97       1.0  0.61916  0.20355  0.37742  1.0000
  H   H98       1.0  0.64925  0.21951  0.38019  1.0000
  C   C176      1.0  0.59891  0.17053  0.33735  1.0000
  N   N52       1.0  0.58993  0.17876  0.33777  1.0000
  C   C177      1.0  0.57275  0.17071  0.33412  1.0000
  C   C178      1.0  0.57262  0.14443  0.32959  1.0000
  N   N53       1.0  0.58989  0.15330  0.33301  1.0000
  H   H99       1.0  0.58460  0.12290  0.30396  1.0000
  N   N54       1.0  0.66989  0.20930  0.34649  1.0000
  N   N55       1.0  0.53697  0.07322  0.32158  1.0000
  C   C179      1.0  0.03822  0.51258  0.36785  1.0000
  H   H100      1.0  0.04654  0.51075  0.40558  1.0000
  C   C180      1.0  0.95565  0.47264  0.35296  1.0000
  C   C181      1.0  0.96711  0.47750  0.42498  1.0000
  N   N56       1.0  0.98399  0.48734  0.41044  1.0000
  H   H101      1.0  0.96297  0.47381  0.48887  1.0000
  C   C182      1.0  0.93843  0.46213  0.36700  1.0000
  H   H102      1.0  0.93466  0.45341  0.41491  1.0000
  C   C183      1.0  0.49969  0.51984  0.37684  1.0000
  C   C184      1.0  0.48802  0.52576  0.36802  1.0000
  H   H103      1.0  0.48985  0.53591  0.40576  1.0000
  C   C185      1.0  0.52799  0.48316  0.35305  1.0000
  C   C186      1.0  0.52313  0.48976  0.42508  1.0000
  N   N57       1.0  0.51329  0.49679  0.41055  1.0000
  H   H104      1.0  0.52682  0.48931  0.48897  1.0000
  N   N58       1.0  0.51390  0.52805  0.43421  1.0000
  O   O21       1.0  0.50942  0.52760  0.51392  1.0000
  O   O22       1.0  0.52345  0.54325  0.41207  1.0000
  C   C187      1.0  0.53850  0.47645  0.36709  1.0000
  H   H105      1.0  0.54723  0.48140  0.41494  1.0000
  C   C188      1.0  0.48080  0.97994  0.37687  1.0000
  C   C189      1.0  0.47488  0.96236  0.36810  1.0000
  H   H106      1.0  0.46473  0.95404  0.40585  1.0000
  C   C190      1.0  0.51748  0.04492  0.35284  1.0000
  C   C191      1.0  0.51090  0.03347  0.42491  1.0000
  N   N59       1.0  0.50386  0.01660  0.41045  1.0000
  H   H107      1.0  0.51136  0.03763  0.48879  1.0000
  N   N60       1.0  0.47260  0.98596  0.43419  1.0000
  O   O23       1.0  0.47304  0.98193  0.51392  1.0000
  O   O24       1.0  0.45739  0.98030  0.41203  1.0000
  C   C192      1.0  0.52421  0.06215  0.36684  1.0000
  H   H108      1.0  0.51926  0.06593  0.41466  1.0000
  C   C193      1.0  0.30404  0.53189  0.35621  1.0000
  C   C194      1.0  0.29116  0.52216  0.41838  1.0000
  N   N61       1.0  0.27542  0.52001  0.40791  1.0000
  C   C195      1.0  0.27066  0.52637  0.33872  1.0000
  C   C196      1.0  0.25425  0.52464  0.34105  1.0000
  C   C197      1.0  0.24715  0.52739  0.41940  1.0000
  C   C198      1.0  0.23154  0.52717  0.41207  1.0000
  H   H109      1.0  0.22664  0.52976  0.46749  1.0000
  H   H110      1.0  0.29366  0.51742  0.47456  1.0000
  N   N62       1.0  0.25602  0.53134  0.50147  1.0000
  O   O25       1.0  0.24750  0.52070  0.56075  1.0000
  O   O26       1.0  0.25984  0.54588  0.52862  1.0000
  C   C199      1.0  0.32081  0.53687  0.37497  1.0000
  H   H111      1.0  0.32458  0.53895  0.43846  1.0000
  C   C200      1.0  0.46872  0.77225  0.35599  1.0000
  C   C201      1.0  0.47848  0.76912  0.41811  1.0000
  N   N63       1.0  0.48063  0.75553  0.40773  1.0000
  C   C202      1.0  0.47422  0.74438  0.33868  1.0000
  C   C203      1.0  0.47596  0.72970  0.34107  1.0000
  C   C204      1.0  0.47326  0.71989  0.41947  1.0000
  C   C205      1.0  0.47350  0.70450  0.41221  1.0000
  H   H112      1.0  0.47090  0.69702  0.46765  1.0000
  H   H113      1.0  0.48325  0.77639  0.47418  1.0000
  N   N64       1.0  0.46933  0.72483  0.50155  1.0000
  O   O27       1.0  0.48000  0.72697  0.56075  1.0000
  O   O28       1.0  0.45480  0.71410  0.52884  1.0000
  C   C206      1.0  0.46379  0.78407  0.37472  1.0000
  H   H114      1.0  0.46171  0.78577  0.43819  1.0000
  C   C207      1.0  0.22839  0.69655  0.35637  1.0000
  C   C208      1.0  0.23155  0.70943  0.41860  1.0000
  N   N65       1.0  0.24512  0.72517  0.40805  1.0000
  C   C209      1.0  0.25621  0.72994  0.33871  1.0000
  C   C210      1.0  0.27090  0.74636  0.34101  1.0000
  C   C211      1.0  0.28076  0.75345  0.41931  1.0000
  C   C212      1.0  0.29615  0.76907  0.41197  1.0000
  H   H115      1.0  0.30366  0.77394  0.46731  1.0000
  H   H116      1.0  0.22433  0.70693  0.47488  1.0000
  N   N66       1.0  0.27586  0.74456  0.50136  1.0000
  O   O29       1.0  0.27376  0.75307  0.56077  1.0000
  O   O30       1.0  0.28660  0.74075  0.52830  1.0000
  C   C213      1.0  0.21661  0.67979  0.37522  1.0000
  H   H117      1.0  0.21494  0.67603  0.43874  1.0000
  C   C214      1.0  0.69705  0.46849  0.35691  1.0000
  C   C215      1.0  0.70998  0.47828  0.41874  1.0000
  N   N67       1.0  0.72572  0.48048  0.40794  1.0000
  C   C216      1.0  0.73043  0.47407  0.33873  1.0000
  C   C217      1.0  0.74688  0.47586  0.34062  1.0000
  C   C218      1.0  0.75405  0.47315  0.41873  1.0000
  C   C219      1.0  0.76968  0.47341  0.41098  1.0000
  H   H118      1.0  0.77461  0.47080  0.46619  1.0000
  H   H119      1.0  0.70752  0.48311  0.47475  1.0000
  N   N68       1.0  0.74523  0.46919  0.50099  1.0000
  O   O31       1.0  0.75379  0.47984  0.56017  1.0000
  O   O32       1.0  0.74147  0.45466  0.52806  1.0000
  C   C220      1.0  0.68031  0.46360  0.37572  1.0000
  H   H120      1.0  0.67655  0.46156  0.43923  1.0000
  C   C221      1.0  0.53213  0.22869  0.35739  1.0000
  C   C222      1.0  0.52236  0.23185  0.41924  1.0000
  N   N69       1.0  0.52017  0.24540  0.40831  1.0000
  C   C223      1.0  0.52654  0.25648  0.33892  1.0000
  C   C224      1.0  0.52475  0.27114  0.34071  1.0000
  C   C225      1.0  0.52747  0.28104  0.41876  1.0000
  C   C226      1.0  0.52723  0.29642  0.41088  1.0000
  H   H121      1.0  0.52982  0.30396  0.46605  1.0000
  H   H122      1.0  0.51760  0.22463  0.47548  1.0000
  N   N70       1.0  0.53144  0.27621  0.50106  1.0000
  O   O33       1.0  0.52080  0.27413  0.56025  1.0000
  O   O34       1.0  0.54598  0.28699  0.52806  1.0000
  C   C227      1.0  0.53707  0.21688  0.37642  1.0000
  H   H123      1.0  0.53918  0.21525  0.43995  1.0000
  C   C228      1.0  0.77185  0.30356  0.35709  1.0000
  C   C229      1.0  0.76871  0.29064  0.41902  1.0000
  N   N71       1.0  0.75517  0.27489  0.40817  1.0000
  C   C230      1.0  0.74407  0.27016  0.33884  1.0000
  C   C231      1.0  0.72943  0.25371  0.34073  1.0000
  C   C232      1.0  0.71955  0.24652  0.41885  1.0000
  C   C233      1.0  0.70419  0.23089  0.41108  1.0000
  H   H124      1.0  0.69665  0.22595  0.46628  1.0000
  H   H125      1.0  0.77594  0.29311  0.47524  1.0000
  N   N72       1.0  0.72439  0.25533  0.50112  1.0000
  O   O35       1.0  0.72650  0.24679  0.56029  1.0000
  O   O36       1.0  0.71361  0.25908  0.52820  1.0000
  C   C234      1.0  0.78366  0.32031  0.37608  1.0000
  H   H126      1.0  0.78529  0.32405  0.43959  1.0000
