data_image0
_chemical_formula_structural       C4NC2NCH2CHC4NC2NCH2CHC4NC2NCH2CHC2H2C2H4C2H2C2H4C2H2C2H4CNCNCNC18H12CNCNCNC18H12CNCNCNC18H12CNCNCNC18H12C2H2C2H5C2H2C2H5C2H2C2H5C4NC2NCH2CH2C4NC2NCH2CH2C4NC2NCH2CH2
_chemical_formula_sum              "C156 N24 H108"
_cell_length_a       44.9697
_cell_length_b       44.9697
_cell_length_c       15.0094
_cell_angle_alpha    90
_cell_angle_beta     90
_cell_angle_gamma    120

_space_group_name_H-M_alt    "P 1"
_space_group_IT_number       1

loop_
  _space_group_symop_operation_xyz
  'x, y, z'

loop_
  _atom_site_type_symbol
  _atom_site_label
  _atom_site_symmetry_multiplicity
  _atom_site_fract_x
  _atom_site_fract_y
  _atom_site_fract_z
  _atom_site_occupancy
  C   C1        1.0  0.17284  0.07510  0.31929  1.0000
  C   C2        1.0  0.19099  0.09413  0.24308  1.0000
  C   C3        1.0  0.22745  0.11194  0.24164  1.0000
  C   C4        1.0  0.24617  0.11070  0.31607  1.0000
  N   N1        1.0  0.24350  0.12917  0.16598  1.0000
  C   C5        1.0  0.22682  0.13033  0.09183  1.0000
  C   C6        1.0  0.19050  0.11302  0.09366  1.0000
  N   N2        1.0  0.17438  0.09550  0.16871  1.0000
  C   C7        1.0  0.24702  0.14943  0.01263  1.0000
  H   H1        1.0  0.26830  0.14452  0.00312  1.0000
  H   H2        1.0  0.25789  0.17687  0.02531  1.0000
  C   C8        1.0  0.16960  0.11180  0.01582  1.0000
  H   H3        1.0  0.14958  0.11714  0.03799  1.0000
  C   C9        1.0  0.91210  0.09759  0.31928  1.0000
  C   C10       1.0  0.89306  0.09670  0.24308  1.0000
  C   C11       1.0  0.87524  0.11535  0.24166  1.0000
  C   C12       1.0  0.87649  0.13531  0.31610  1.0000
  N   N3        1.0  0.85801  0.11417  0.16600  1.0000
  C   C13       1.0  0.85685  0.09633  0.09186  1.0000
  C   C14       1.0  0.87416  0.07732  0.09366  1.0000
  N   N4        1.0  0.89169  0.07873  0.16871  1.0000
  C   C15       1.0  0.83774  0.09743  0.01267  1.0000
  H   H4        1.0  0.84264  0.12362  0.00316  1.0000
  H   H5        1.0  0.81031  0.08086  0.02536  1.0000
  C   C16       1.0  0.87538  0.05765  0.01581  1.0000
  H   H6        1.0  0.87005  0.03229  0.03798  1.0000
  C   C17       1.0  0.88960  0.81437  0.31926  1.0000
  C   C18       1.0  0.89050  0.79623  0.24305  1.0000
  C   C19       1.0  0.87184  0.75977  0.24162  1.0000
  C   C20       1.0  0.85188  0.74104  0.31606  1.0000
  N   N5        1.0  0.87302  0.74371  0.16596  1.0000
  C   C21       1.0  0.89086  0.76039  0.09182  1.0000
  C   C22       1.0  0.90987  0.79672  0.09363  1.0000
  N   N6        1.0  0.90847  0.81283  0.16868  1.0000
  C   C23       1.0  0.88975  0.74018  0.01262  1.0000
  H   H7        1.0  0.86357  0.71891  0.00312  1.0000
  H   H8        1.0  0.90633  0.72932  0.02530  1.0000
  C   C24       1.0  0.92954  0.81761  0.01578  1.0000
  H   H9        1.0  0.95490  0.83763  0.03796  1.0000
  C   C25       1.0  0.58894  0.14645  0.26105  1.0000
  C   C26       1.0  0.55816  0.14732  0.25705  1.0000
  H   H10       1.0  0.55421  0.15901  0.20341  1.0000
  H   H11       1.0  0.60639  0.15788  0.21061  1.0000
  C   C27       1.0  0.55478  0.09397  0.06195  1.0000
  C   C28       1.0  0.51562  0.07717  0.04638  1.0000
  H   H12       1.0  0.56492  0.12077  0.08108  1.0000
  H   H13       1.0  0.55978  0.08090  0.11637  1.0000
  H   H14       1.0  0.50321  0.07887  0.10729  1.0000
  H   H15       1.0  0.50518  0.04996  0.03093  1.0000
  C   C29       1.0  0.84068  0.44231  0.26110  1.0000
  C   C30       1.0  0.83982  0.41067  0.25707  1.0000
  H   H16       1.0  0.82813  0.39503  0.20340  1.0000
  H   H17       1.0  0.82927  0.44833  0.21062  1.0000
  C   C31       1.0  0.89316  0.46062  0.06192  1.0000
  C   C32       1.0  0.90996  0.43826  0.04632  1.0000
  H   H18       1.0  0.86637  0.44395  0.08108  1.0000
  H   H19       1.0  0.90623  0.47869  0.11633  1.0000
  H   H20       1.0  0.90827  0.42415  0.10723  1.0000
  H   H21       1.0  0.93717  0.45503  0.03085  1.0000
  C   C33       1.0  0.54491  0.39826  0.26113  1.0000
  C   C34       1.0  0.57654  0.42906  0.25710  1.0000
  H   H22       1.0  0.59219  0.43303  0.20345  1.0000
  H   H23       1.0  0.53891  0.38083  0.21065  1.0000
  C   C35       1.0  0.52651  0.43233  0.06197  1.0000
  C   C36       1.0  0.54884  0.47150  0.04641  1.0000
  H   H24       1.0  0.54319  0.42223  0.08111  1.0000
  H   H25       1.0  0.50843  0.42731  0.11638  1.0000
  H   H26       1.0  0.56293  0.48391  0.10733  1.0000
  H   H27       1.0  0.53204  0.48191  0.03096  1.0000
  C   C37       1.0  0.97166  0.96037  0.33790  1.0000
  N   N7        1.0  0.00654  0.97642  0.33768  1.0000
  C   C38       1.0  0.02685  0.01116  0.33790  1.0000
  N   N8        1.0  0.01080  0.02998  0.33768  1.0000
  C   C39       1.0  0.97606  0.01555  0.33790  1.0000
  N   N9        1.0  0.95723  0.98068  0.33768  1.0000
  C   C40       1.0  0.06334  0.02713  0.33542  1.0000
  C   C41       1.0  0.08010  0.00766  0.34419  1.0000
  C   C42       1.0  0.11609  0.02336  0.33981  1.0000
  C   C43       1.0  0.13652  0.05905  0.32522  1.0000
  C   C44       1.0  0.12010  0.07872  0.31733  1.0000
  C   C45       1.0  0.08416  0.06303  0.32262  1.0000
  C   C46       1.0  0.95113  0.92387  0.33541  1.0000
  C   C47       1.0  0.96622  0.90306  0.32260  1.0000
  C   C48       1.0  0.94598  0.86712  0.31730  1.0000
  C   C49       1.0  0.90989  0.85070  0.32519  1.0000
  C   C50       1.0  0.89462  0.87113  0.33978  1.0000
  C   C51       1.0  0.91491  0.90712  0.34418  1.0000
  C   C52       1.0  0.96009  0.03608  0.33539  1.0000
  C   C53       1.0  0.92418  0.02099  0.32258  1.0000
  C   C54       1.0  0.90848  0.04123  0.31731  1.0000
  C   C55       1.0  0.92815  0.07731  0.32520  1.0000
  C   C56       1.0  0.96384  0.09258  0.33979  1.0000
  C   C57       1.0  0.97955  0.07230  0.34416  1.0000
  H   H28       1.0  0.95787  0.85300  0.30800  1.0000
  H   H29       1.0  0.99223  0.91380  0.31572  1.0000
  H   H30       1.0  0.86852  0.85999  0.34552  1.0000
  H   H31       1.0  0.90273  0.92092  0.35384  1.0000
  H   H32       1.0  0.90892  0.99498  0.31574  1.0000
  H   H33       1.0  0.88246  0.02932  0.30803  1.0000
  H   H34       1.0  0.00554  0.08449  0.35381  1.0000
  H   H35       1.0  0.97881  0.11869  0.34550  1.0000
  H   H36       1.0  0.07342  0.07829  0.31573  1.0000
  H   H37       1.0  0.13422  0.10474  0.30803  1.0000
  H   H38       1.0  0.12723  0.00840  0.34556  1.0000
  H   H39       1.0  0.06629  0.98167  0.35385  1.0000
  C   C58       1.0  0.44692  0.19324  0.34716  1.0000
  N   N10       1.0  0.41217  0.17484  0.33874  1.0000
  C   C59       1.0  0.39233  0.18992  0.33670  1.0000
  N   N11       1.0  0.40854  0.22482  0.34281  1.0000
  C   C60       1.0  0.44310  0.24434  0.35228  1.0000
  N   N12       1.0  0.46137  0.22783  0.35383  1.0000
  C   C61       1.0  0.35589  0.16995  0.32961  1.0000
  C   C62       1.0  0.33841  0.13368  0.33760  1.0000
  C   C63       1.0  0.30236  0.11409  0.33317  1.0000
  C   C64       1.0  0.28261  0.13013  0.31917  1.0000
  C   C65       1.0  0.29978  0.16623  0.31081  1.0000
  C   C66       1.0  0.33577  0.18577  0.31618  1.0000
  C   C67       1.0  0.46815  0.17799  0.34628  1.0000
  C   C68       1.0  0.45483  0.14254  0.32881  1.0000
  C   C69       1.0  0.47656  0.12835  0.32402  1.0000
  C   C70       1.0  0.51229  0.14939  0.33626  1.0000
  C   C71       1.0  0.52570  0.18452  0.35562  1.0000
  C   C72       1.0  0.50403  0.19850  0.36047  1.0000
  C   C73       1.0  0.46063  0.28070  0.35750  1.0000
  C   C74       1.0  0.49226  0.29838  0.40363  1.0000
  C   C75       1.0  0.51199  0.33432  0.40151  1.0000
  C   C76       1.0  0.50086  0.35374  0.35233  1.0000
  C   C77       1.0  0.46905  0.33644  0.30738  1.0000
  C   C78       1.0  0.44882  0.30034  0.31156  1.0000
  H   H40       1.0  0.46627  0.10278  0.31013  1.0000
  H   H41       1.0  0.42914  0.12671  0.31787  1.0000
  H   H42       1.0  0.55151  0.20035  0.36566  1.0000
  H   H43       1.0  0.51514  0.22419  0.37382  1.0000
  H   H44       1.0  0.50183  0.28523  0.43749  1.0000
  H   H45       1.0  0.53548  0.34605  0.43226  1.0000
  H   H46       1.0  0.42657  0.28842  0.27532  1.0000
  H   H47       1.0  0.46102  0.34989  0.26896  1.0000
  H   H48       1.0  0.34703  0.21186  0.31015  1.0000
  H   H49       1.0  0.28617  0.17870  0.30224  1.0000
  H   H50       1.0  0.29066  0.08797  0.33956  1.0000
  H   H51       1.0  0.35167  0.12099  0.34818  1.0000
  C   C79       1.0  0.79390  0.25348  0.34724  1.0000
  N   N13       1.0  0.81230  0.23713  0.33882  1.0000
  C   C80       1.0  0.79724  0.20221  0.33678  1.0000
  N   N14       1.0  0.76233  0.18351  0.34289  1.0000
  C   C81       1.0  0.74281  0.19855  0.35237  1.0000
  N   N15       1.0  0.75931  0.23332  0.35391  1.0000
  C   C82       1.0  0.81721  0.18574  0.32969  1.0000
  C   C83       1.0  0.85348  0.20454  0.33768  1.0000
  C   C84       1.0  0.87308  0.18810  0.33321  1.0000
  C   C85       1.0  0.85705  0.15231  0.31923  1.0000
  C   C86       1.0  0.82095  0.13337  0.31089  1.0000
  C   C87       1.0  0.80140  0.14980  0.31626  1.0000
  C   C88       1.0  0.80914  0.28995  0.34634  1.0000
  C   C89       1.0  0.84460  0.31209  0.32907  1.0000
  C   C90       1.0  0.85879  0.34802  0.32425  1.0000
  C   C91       1.0  0.83772  0.36268  0.33630  1.0000
  C   C92       1.0  0.80258  0.34097  0.35547  1.0000
  C   C93       1.0  0.78860  0.30530  0.36033  1.0000
  C   C94       1.0  0.70644  0.17970  0.35755  1.0000
  C   C95       1.0  0.68876  0.19364  0.40367  1.0000
  C   C96       1.0  0.65281  0.17741  0.40159  1.0000
  C   C97       1.0  0.63339  0.14688  0.35235  1.0000
  C   C98       1.0  0.65072  0.13241  0.30735  1.0000
  C   C99       1.0  0.68682  0.14825  0.31160  1.0000
  H   H52       1.0  0.88436  0.36330  0.31043  1.0000
  H   H53       1.0  0.86044  0.30224  0.31819  1.0000
  H   H54       1.0  0.78673  0.35093  0.36538  1.0000
  H   H55       1.0  0.76291  0.29072  0.37357  1.0000
  H   H56       1.0  0.70190  0.21637  0.43755  1.0000
  H   H57       1.0  0.64108  0.18919  0.43227  1.0000
  H   H58       1.0  0.69873  0.13794  0.27533  1.0000
  H   H59       1.0  0.63727  0.11091  0.26894  1.0000
  H   H60       1.0  0.77531  0.13498  0.31023  1.0000
  H   H61       1.0  0.80849  0.10729  0.30230  1.0000
  H   H62       1.0  0.89920  0.20253  0.33957  1.0000
  H   H63       1.0  0.86616  0.23049  0.34821  1.0000
  C   C100      1.0  0.73367  0.54030  0.34724  1.0000
  N   N16       1.0  0.75003  0.57505  0.33879  1.0000
  C   C101      1.0  0.78494  0.59489  0.33674  1.0000
  N   N17       1.0  0.80364  0.57868  0.34285  1.0000
  C   C102      1.0  0.78859  0.54412  0.35235  1.0000
  N   N18       1.0  0.75382  0.52585  0.35391  1.0000
  C   C103      1.0  0.80142  0.63134  0.32963  1.0000
  C   C104      1.0  0.78263  0.64881  0.33760  1.0000
  C   C105      1.0  0.79908  0.68485  0.33316  1.0000
  C   C106      1.0  0.83487  0.70461  0.31916  1.0000
  C   C107      1.0  0.85380  0.68744  0.31081  1.0000
  C   C108      1.0  0.83736  0.65145  0.31620  1.0000
  C   C109      1.0  0.69720  0.51907  0.34637  1.0000
  C   C110      1.0  0.67507  0.53239  0.32877  1.0000
  C   C111      1.0  0.63914  0.51065  0.32396  1.0000
  C   C112      1.0  0.62447  0.47493  0.33635  1.0000
  C   C113      1.0  0.64617  0.46153  0.35585  1.0000
  C   C114      1.0  0.68184  0.48321  0.36071  1.0000
  C   C115      1.0  0.80743  0.52659  0.35755  1.0000
  C   C116      1.0  0.79350  0.49498  0.40375  1.0000
  C   C117      1.0  0.80970  0.47524  0.40158  1.0000
  C   C118      1.0  0.84023  0.48635  0.35235  1.0000
  C   C119      1.0  0.85473  0.51816  0.30738  1.0000
  C   C120      1.0  0.83885  0.53838  0.31150  1.0000
  H   H64       1.0  0.62387  0.52094  0.30997  1.0000
  H   H65       1.0  0.68493  0.55808  0.31771  1.0000
  H   H66       1.0  0.63620  0.43572  0.36599  1.0000
  H   H67       1.0  0.69640  0.47210  0.37415  1.0000
  H   H68       1.0  0.77077  0.48540  0.43761  1.0000
  H   H69       1.0  0.79793  0.45175  0.43234  1.0000
  H   H70       1.0  0.84920  0.56064  0.27535  1.0000
  H   H71       1.0  0.87621  0.52619  0.26894  1.0000
  H   H72       1.0  0.85218  0.64019  0.31018  1.0000
  H   H73       1.0  0.87988  0.70105  0.30224  1.0000
  H   H74       1.0  0.78466  0.69656  0.33955  1.0000
  H   H75       1.0  0.75668  0.63555  0.34819  1.0000
  C   C121      1.0  0.22780  0.09039  0.39007  1.0000
  C   C122      1.0  0.19172  0.07300  0.39187  1.0000
  H   H76       1.0  0.17937  0.05967  0.44815  1.0000
  H   H77       1.0  0.24061  0.08912  0.44502  1.0000
  C   C123      1.0  0.22550  0.13942  0.59234  1.0000
  C   C124      1.0  0.19056  0.13760  0.60731  1.0000
  H   H78       1.0  0.22080  0.11429  0.57018  1.0000
  H   H79       1.0  0.23987  0.15809  0.54006  1.0000
  H   H80       1.0  0.17575  0.12992  0.54543  1.0000
  H   H81       1.0  0.19520  0.16316  0.62523  1.0000
  H   H82       1.0  0.15703  0.08571  0.65564  1.0000
  C   C125      1.0  0.89680  0.13725  0.39008  1.0000
  C   C126      1.0  0.91420  0.11857  0.39187  1.0000
  H   H83       1.0  0.92753  0.11955  0.44815  1.0000
  H   H84       1.0  0.89807  0.15133  0.44505  1.0000
  C   C127      1.0  0.84775  0.08592  0.59236  1.0000
  C   C128      1.0  0.84957  0.05280  0.60733  1.0000
  H   H85       1.0  0.87287  0.10636  0.57020  1.0000
  H   H86       1.0  0.82907  0.08162  0.54010  1.0000
  H   H87       1.0  0.85725  0.04567  0.54543  1.0000
  H   H88       1.0  0.82402  0.03188  0.62525  1.0000
  H   H89       1.0  0.90147  0.07117  0.65562  1.0000
  C   C129      1.0  0.84994  0.75942  0.39005  1.0000
  C   C130      1.0  0.86863  0.79550  0.39184  1.0000
  H   H90       1.0  0.86765  0.80785  0.44813  1.0000
  H   H91       1.0  0.83586  0.74661  0.44501  1.0000
  C   C131      1.0  0.90127  0.76171  0.59232  1.0000
  C   C132      1.0  0.93439  0.79665  0.60729  1.0000
  H   H92       1.0  0.88083  0.76640  0.57016  1.0000
  H   H93       1.0  0.90557  0.74734  0.54005  1.0000
  H   H94       1.0  0.94152  0.81146  0.54541  1.0000
  H   H95       1.0  0.95531  0.79201  0.62521  1.0000
  H   H96       1.0  0.91603  0.83018  0.65560  1.0000
  C   C133      1.0  0.53550  0.13683  0.33053  1.0000
  C   C134      1.0  0.54356  0.12392  0.40717  1.0000
  C   C135      1.0  0.57471  0.12308  0.41118  1.0000
  C   C136      1.0  0.59802  0.13519  0.33886  1.0000
  N   N19       1.0  0.58257  0.11291  0.48868  1.0000
  C   C137      1.0  0.56221  0.10314  0.56205  1.0000
  C   C138      1.0  0.53100  0.10365  0.55794  1.0000
  N   N20       1.0  0.52350  0.11462  0.48135  1.0000
  C   C139      1.0  0.57351  0.09277  0.64315  1.0000
  H   H97       1.0  0.60110  0.10980  0.65260  1.0000
  H   H98       1.0  0.56893  0.06673  0.63314  1.0000
  C   C140      1.0  0.50751  0.09480  0.63524  1.0000
  H   H99       1.0  0.50909  0.11847  0.65949  1.0000
  H   H100      1.0  0.48116  0.07765  0.61319  1.0000
  C   C141      1.0  0.85027  0.39845  0.33052  1.0000
  C   C142      1.0  0.86318  0.41944  0.40713  1.0000
  C   C143      1.0  0.86401  0.45142  0.41114  1.0000
  C   C144      1.0  0.85191  0.46268  0.33890  1.0000
  N   N21       1.0  0.87418  0.46944  0.48865  1.0000
  C   C145      1.0  0.88396  0.45886  0.56203  1.0000
  C   C146      1.0  0.88346  0.42715  0.55791  1.0000
  N   N22       1.0  0.87249  0.40868  0.48132  1.0000
  C   C147      1.0  0.89434  0.48054  0.64312  1.0000
  H   H101      1.0  0.87730  0.49109  0.65258  1.0000
  H   H102      1.0  0.92037  0.50200  0.63308  1.0000
  C   C148      1.0  0.89233  0.41252  0.63519  1.0000
  H   H103      1.0  0.86866  0.39043  0.65946  1.0000
  H   H104      1.0  0.90947  0.40331  0.61313  1.0000
  C   C149      1.0  0.58869  0.45172  0.33059  1.0000
  C   C150      1.0  0.56771  0.44362  0.40721  1.0000
  C   C151      1.0  0.53575  0.41245  0.41118  1.0000
  C   C152      1.0  0.52453  0.38910  0.33891  1.0000
  N   N23       1.0  0.51772  0.40457  0.48868  1.0000
  C   C153      1.0  0.52828  0.42493  0.56207  1.0000
  C   C154      1.0  0.55998  0.45616  0.55798  1.0000
  N   N24       1.0  0.57845  0.46369  0.48141  1.0000
  C   C155      1.0  0.50660  0.41359  0.64315  1.0000
  H   H105      1.0  0.49608  0.38601  0.65259  1.0000
  H   H106      1.0  0.48512  0.41814  0.63313  1.0000
  C   C156      1.0  0.57458  0.47964  0.63529  1.0000
  H   H107      1.0  0.59669  0.47810  0.65955  1.0000
  H   H108      1.0  0.58376  0.50600  0.61325  1.0000
