data_image0
_chemical_formula_structural       C3NC3NC5NC5NC20H18C4H4C7H3NO2NC7H3NO2NC8H8C3H2C2H2NC3H2C2H2N
_chemical_formula_sum              "C72 N10 H44 O4"
_cell_length_a       29.833
_cell_length_b       29.8328
_cell_length_c       14.9414
_cell_angle_alpha    90
_cell_angle_beta     90
_cell_angle_gamma    90.0327

_space_group_name_H-M_alt    "P 1"
_space_group_IT_number       1

loop_
  _space_group_symop_operation_xyz
  'x, y, z'

loop_
  _atom_site_type_symbol
  _atom_site_label
  _atom_site_symmetry_multiplicity
  _atom_site_fract_x
  _atom_site_fract_y
  _atom_site_fract_z
  _atom_site_occupancy
  C   C1        1.0  0.92235  0.88157  0.32273  1.0000
  C   C2        1.0  0.88822  0.91277  0.32454  1.0000
  C   C3        1.0  0.90734  0.95557  0.32574  1.0000
  N   N1        1.0  0.95227  0.94861  0.32643  1.0000
  C   C4        1.0  0.96320  0.90449  0.32376  1.0000
  C   C5        1.0  0.00614  0.88377  0.32095  1.0000
  C   C6        1.0  0.04763  0.90721  0.32139  1.0000
  N   N2        1.0  0.05435  0.95200  0.32439  1.0000
  C   C7        1.0  0.09839  0.96263  0.32183  1.0000
  C   C8        1.0  0.12146  0.92196  0.31748  1.0000
  C   C9        1.0  0.09021  0.88783  0.31765  1.0000
  C   C10       1.0  0.11800  0.00602  0.32139  1.0000
  C   C11       1.0  0.09348  0.04695  0.32370  1.0000
  N   N3        1.0  0.04859  0.05394  0.32751  1.0000
  C   C12       1.0  0.03764  0.09807  0.32570  1.0000
  C   C13       1.0  0.07850  0.12095  0.32224  1.0000
  C   C14       1.0  0.11261  0.08973  0.32142  1.0000
  C   C15       1.0  0.99468  0.11883  0.32554  1.0000
  C   C16       1.0  0.95321  0.09534  0.32675  1.0000
  N   N4        1.0  0.94650  0.05051  0.32757  1.0000
  C   C17       1.0  0.90243  0.03988  0.32684  1.0000
  C   C18       1.0  0.87933  0.08058  0.32562  1.0000
  C   C19       1.0  0.91058  0.11471  0.32626  1.0000
  C   C20       1.0  0.88277  0.99651  0.32564  1.0000
  C   C21       1.0  0.83505  0.99388  0.32000  1.0000
  C   C22       1.0  0.74017  0.98467  0.30859  1.0000
  C   C23       1.0  0.76744  0.97875  0.23207  1.0000
  C   C24       1.0  0.81426  0.98367  0.23750  1.0000
  C   C25       1.0  0.99280  0.16656  0.31964  1.0000
  C   C26       1.0  0.98418  0.26148  0.30824  1.0000
  C   C27       1.0  0.97787  0.23423  0.23182  1.0000
  C   C28       1.0  0.98250  0.18739  0.23723  1.0000
  C   C29       1.0  0.16551  0.00865  0.31142  1.0000
  C   C30       1.0  0.18426  0.01697  0.22626  1.0000
  C   C31       1.0  0.23089  0.02143  0.21590  1.0000
  C   C32       1.0  0.26020  0.01722  0.28998  1.0000
  C   C33       1.0  0.00792  0.83623  0.31090  1.0000
  C   C34       1.0  0.01473  0.81743  0.22526  1.0000
  C   C35       1.0  0.01567  0.74151  0.28903  1.0000
  C   C36       1.0  0.01876  0.77079  0.21466  1.0000
  H   H1        1.0  0.02445  0.75845  0.15170  1.0000
  H   H2        1.0  0.01769  0.83766  0.17020  1.0000
  H   H3        1.0  0.91748  0.84768  0.32054  1.0000
  H   H4        1.0  0.85489  0.90483  0.32406  1.0000
  H   H5        1.0  0.97400  0.97236  0.32676  1.0000
  H   H6        1.0  0.02687  0.03020  0.32953  1.0000
  H   H7        1.0  0.09786  0.85449  0.31443  1.0000
  H   H8        1.0  0.15535  0.91732  0.31399  1.0000
  H   H9        1.0  0.16402  0.02065  0.17141  1.0000
  H   H10       1.0  0.24321  0.02815  0.15331  1.0000
  H   H11       1.0  0.14592  0.09761  0.31831  1.0000
  H   H12       1.0  0.08335  0.15483  0.31929  1.0000
  H   H13       1.0  0.84541  0.08528  0.32413  1.0000
  H   H14       1.0  0.90286  0.14808  0.32541  1.0000
  H   H15       1.0  0.97721  0.16848  0.18103  1.0000
  H   H16       1.0  0.96947  0.24820  0.17148  1.0000
  H   H17       1.0  0.83317  0.97879  0.18116  1.0000
  H   H18       1.0  0.75349  0.97049  0.17162  1.0000
  C   C37       1.0  0.97690  0.30717  0.30196  1.0000
  C   C38       1.0  0.30589  0.02401  0.27754  1.0000
  C   C39       1.0  0.02218  0.69582  0.27618  1.0000
  C   C40       1.0  0.69449  0.97734  0.30220  1.0000
  H   H19       1.0  0.94992  0.31766  0.26879  1.0000
  H   H20       1.0  0.31533  0.04343  0.22691  1.0000
  H   H21       1.0  0.04056  0.68638  0.22405  1.0000
  H   H22       1.0  0.68399  0.95044  0.26874  1.0000
  C   C41       1.0  0.99707  0.40454  0.24844  1.0000
  C   C42       1.0  0.99695  0.45201  0.25010  1.0000
  C   C43       1.0  0.00380  0.47655  0.33010  1.0000
  C   C44       1.0  0.00490  0.52458  0.32949  1.0000
  C   C45       1.0  0.02715  0.54817  0.26026  1.0000
  C   C46       1.0  0.02778  0.59529  0.25799  1.0000
  C   C47       1.0  0.00624  0.62081  0.32528  1.0000
  H   H23       1.0  0.04378  0.53122  0.21084  1.0000
  H   H24       1.0  0.04414  0.61055  0.20627  1.0000
  H   H25       1.0  0.99168  0.46873  0.19121  1.0000
  N   N5        1.0  0.99242  0.38080  0.16693  1.0000
  O   O1        1.0  0.95563  0.38926  0.12963  1.0000
  O   O2        1.0  0.02359  0.38996  0.11339  1.0000
  N   N6        1.0  0.00478  0.66560  0.32700  1.0000
  C   C48       1.0  0.59714  0.99769  0.24862  1.0000
  C   C49       1.0  0.54966  0.99768  0.25021  1.0000
  C   C50       1.0  0.52513  0.00451  0.33022  1.0000
  C   C51       1.0  0.47710  0.00568  0.32958  1.0000
  C   C52       1.0  0.45356  0.02799  0.26038  1.0000
  C   C53       1.0  0.40644  0.02866  0.25811  1.0000
  C   C54       1.0  0.38088  0.00714  0.32539  1.0000
  H   H26       1.0  0.47054  0.04460  0.21097  1.0000
  H   H27       1.0  0.39120  0.04496  0.20631  1.0000
  H   H28       1.0  0.53296  0.99250  0.19129  1.0000
  N   N7        1.0  0.62090  0.99306  0.16712  1.0000
  O   O3        1.0  0.61232  0.95633  0.12966  1.0000
  O   O4        1.0  0.61187  0.02430  0.11369  1.0000
  N   N8        1.0  0.33610  0.00566  0.32700  1.0000
  C   C55       1.0  0.80789  0.00006  0.39653  1.0000
  C   C56       1.0  0.76094  0.99573  0.39081  1.0000
  C   C57       1.0  0.99945  0.19370  0.39605  1.0000
  C   C58       1.0  0.99537  0.24067  0.39034  1.0000
  C   C59       1.0  0.24124  0.00817  0.37502  1.0000
  C   C60       1.0  0.19447  0.00404  0.38567  1.0000
  C   C61       1.0  0.00436  0.80732  0.38546  1.0000
  C   C62       1.0  0.00807  0.76053  0.37459  1.0000
  H   H29       1.0  0.00633  0.74057  0.43019  1.0000
  H   H30       1.0  0.99978  0.82021  0.44828  1.0000
  H   H31       1.0  0.18163  0.99824  0.44814  1.0000
  H   H32       1.0  0.26122  0.00552  0.43045  1.0000
  H   H33       1.0  0.00652  0.17937  0.45666  1.0000
  H   H34       1.0  0.99940  0.25942  0.44717  1.0000
  H   H35       1.0  0.74220  0.99948  0.44770  1.0000
  H   H36       1.0  0.82220  0.00712  0.45718  1.0000
  C   C63       1.0  0.00321  0.38055  0.32958  1.0000
  C   C64       1.0  0.01063  0.45185  0.40981  1.0000
  C   C65       1.0  0.01065  0.40467  0.40940  1.0000
  H   H37       1.0  0.01683  0.46802  0.46892  1.0000
  H   H38       1.0  0.01611  0.38795  0.46825  1.0000
  C   C66       1.0  0.98425  0.59750  0.39479  1.0000
  C   C67       1.0  0.98367  0.55026  0.39707  1.0000
  H   H39       1.0  0.96810  0.61486  0.44433  1.0000
  H   H40       1.0  0.96655  0.53477  0.44771  1.0000
  N   N9        1.0  0.00475  0.33593  0.33402  1.0000
  C   C68       1.0  0.62113  0.00369  0.32981  1.0000
  C   C69       1.0  0.54983  0.01121  0.40997  1.0000
  C   C70       1.0  0.59701  0.01113  0.40963  1.0000
  H   H41       1.0  0.53366  0.01740  0.46908  1.0000
  H   H42       1.0  0.61373  0.01650  0.46851  1.0000
  C   C71       1.0  0.40414  0.98505  0.39480  1.0000
  C   C72       1.0  0.45137  0.98442  0.39708  1.0000
  H   H43       1.0  0.38674  0.96886  0.44427  1.0000
  H   H44       1.0  0.46682  0.96723  0.44766  1.0000
  N   N10       1.0  0.66575  0.00516  0.33432  1.0000
