data_image0
_chemical_formula_structural       HNHNC3NH3CHC3NH3CHN2HN2HC3NH3CHC3NH3CHN2HN2HC2NH4C2NH4C6H3C6H3N4C6H3C6H3N4C6H3C6H3N4C6H2C6H3N3C6H2C6H3N3CN2CHCN2CHC4NH3CHC5NH3CHC2N2CHCN2CHC4NH3CHC5NH3CHC3N2C2HC2N2C2H
_chemical_formula_sum              "H80 N50 C120"
_cell_length_a       32.8195
_cell_length_b       40.9847
_cell_length_c       14.8343
_cell_angle_alpha    88.8972
_cell_angle_beta     90.8616
_cell_angle_gamma    89.7253

_space_group_name_H-M_alt    "P 1"
_space_group_IT_number       1

loop_
  _space_group_symop_operation_xyz
  'x, y, z'

loop_
  _atom_site_type_symbol
  _atom_site_label
  _atom_site_symmetry_multiplicity
  _atom_site_fract_x
  _atom_site_fract_y
  _atom_site_fract_z
  _atom_site_occupancy
  H   H1        1.0  0.77424  0.36324  0.39083  1.0000
  N   N1        1.0  0.84426  0.33695  0.36391  1.0000
  H   H2        1.0  0.16002  0.66830  0.35628  1.0000
  N   N2        1.0  0.08918  0.69935  0.37149  1.0000
  C   C1        1.0  0.12257  0.11862  0.35921  1.0000
  C   C2        1.0  0.14134  0.13491  0.28621  1.0000
  C   C3        1.0  0.15813  0.16640  0.29656  1.0000
  N   N3        1.0  0.17389  0.18210  0.22343  1.0000
  H   H3        1.0  0.17290  0.17246  0.16401  1.0000
  H   H4        1.0  0.18627  0.20352  0.22774  1.0000
  H   H5        1.0  0.14091  0.12453  0.22393  1.0000
  C   C4        1.0  0.10589  0.08726  0.34989  1.0000
  H   H6        1.0  0.11349  0.07420  0.29437  1.0000
  C   C5        1.0  0.81118  0.91558  0.34053  1.0000
  C   C6        1.0  0.79316  0.90047  0.26515  1.0000
  C   C7        1.0  0.77536  0.86918  0.27352  1.0000
  N   N4        1.0  0.76002  0.85477  0.19852  1.0000
  H   H7        1.0  0.76187  0.86523  0.13931  1.0000
  H   H8        1.0  0.74608  0.83392  0.20160  1.0000
  H   H9        1.0  0.79480  0.91157  0.20285  1.0000
  C   C8        1.0  0.82900  0.94666  0.33291  1.0000
  H   H10       1.0  0.82268  0.96040  0.27594  1.0000
  N   N5        1.0  0.77643  0.15353  0.33913  1.0000
  N   N6        1.0  0.80121  0.12832  0.34290  1.0000
  H   H11       1.0  0.72826  0.20365  0.33316  1.0000
  N   N7        1.0  0.16059  0.88018  0.37654  1.0000
  N   N8        1.0  0.13544  0.90516  0.37564  1.0000
  H   H12       1.0  0.20857  0.83017  0.37297  1.0000
  C   C9        1.0  0.24245  0.48132  0.31279  1.0000
  C   C10       1.0  0.24000  0.50571  0.24463  1.0000
  C   C11       1.0  0.24465  0.53903  0.26626  1.0000
  N   N9        1.0  0.24302  0.56177  0.19821  1.0000
  H   H13       1.0  0.24018  0.55543  0.13556  1.0000
  H   H14       1.0  0.24389  0.58499  0.20954  1.0000
  H   H15       1.0  0.23665  0.49905  0.17876  1.0000
  C   C12       1.0  0.23701  0.44804  0.29625  1.0000
  H   H16       1.0  0.22230  0.44107  0.23846  1.0000
  C   C13       1.0  0.69325  0.55122  0.32263  1.0000
  C   C14       1.0  0.69198  0.52801  0.25378  1.0000
  C   C15       1.0  0.68671  0.49444  0.27519  1.0000
  N   N10       1.0  0.68512  0.47289  0.20659  1.0000
  H   H17       1.0  0.68614  0.48026  0.14392  1.0000
  H   H18       1.0  0.68393  0.44951  0.21746  1.0000
  H   H19       1.0  0.69334  0.53574  0.18784  1.0000
  C   C16       1.0  0.69975  0.58460  0.30672  1.0000
  H   H20       1.0  0.71247  0.59244  0.24768  1.0000
  N   N11       1.0  0.95012  0.33408  0.29318  1.0000
  N   N12       1.0  0.98938  0.33385  0.31091  1.0000
  H   H21       1.0  0.87752  0.31930  0.26136  1.0000
  N   N13       1.0  0.98454  0.67159  0.35282  1.0000
  N   N14       1.0  0.94568  0.67977  0.35367  1.0000
  H   H22       1.0  0.06085  0.65629  0.34753  1.0000
  C   C17       1.0  0.44609  0.33226  0.26337  1.0000
  C   C18       1.0  0.48889  0.33245  0.27945  1.0000
  N   N15       1.0  0.51374  0.33132  0.20697  1.0000
  H   H23       1.0  0.50274  0.32902  0.14618  1.0000
  H   H24       1.0  0.54311  0.33248  0.21275  1.0000
  H   H25       1.0  0.43515  0.33104  0.19849  1.0000
  H   H26       1.0  0.36796  0.34720  0.25461  1.0000
  C   C19       1.0  0.48808  0.69979  0.26109  1.0000
  C   C20       1.0  0.44530  0.69989  0.27482  1.0000
  N   N16       1.0  0.42026  0.70234  0.20103  1.0000
  H   H27       1.0  0.43113  0.70550  0.14086  1.0000
  H   H28       1.0  0.39089  0.70158  0.20536  1.0000
  H   H29       1.0  0.49890  0.70182  0.19683  1.0000
  H   H30       1.0  0.56612  0.68416  0.25706  1.0000
  C   C21       1.0  0.98939  0.01649  0.40845  1.0000
  C   C22       1.0  0.01298  0.98774  0.39675  1.0000
  C   C23       1.0  0.05575  0.98784  0.38501  1.0000
  C   C24       1.0  0.07546  0.01820  0.37772  1.0000
  C   C25       1.0  0.05456  0.04742  0.39685  1.0000
  C   C26       1.0  0.01258  0.04574  0.41648  1.0000
  H   H31       1.0  0.99867  0.96605  0.38963  1.0000
  H   H32       1.0  0.99860  0.06721  0.43137  1.0000
  H   H33       1.0  0.10631  0.01873  0.36882  1.0000
  C   C27       1.0  0.94544  0.01581  0.40494  1.0000
  C   C28       1.0  0.92192  0.98661  0.41100  1.0000
  C   C29       1.0  0.88021  0.98534  0.38582  1.0000
  C   C30       1.0  0.85987  0.01484  0.36244  1.0000
  C   C31       1.0  0.87984  0.04502  0.36927  1.0000
  C   C32       1.0  0.92237  0.04472  0.38696  1.0000
  H   H34       1.0  0.93553  0.96495  0.42861  1.0000
  H   H35       1.0  0.82918  0.01462  0.34918  1.0000
  H   H36       1.0  0.93704  0.06627  0.37948  1.0000
  N   N17       1.0  0.85682  0.07270  0.36064  1.0000
  N   N18       1.0  0.86156  0.95572  0.38372  1.0000
  N   N19       1.0  0.07274  0.07724  0.39604  1.0000
  N   N20       1.0  0.07926  0.96037  0.38303  1.0000
  C   C33       1.0  0.19202  0.32107  0.36315  1.0000
  C   C34       1.0  0.19181  0.28646  0.37923  1.0000
  C   C35       1.0  0.15550  0.26792  0.38093  1.0000
  C   C36       1.0  0.11784  0.28416  0.37649  1.0000
  C   C37       1.0  0.11534  0.31820  0.36449  1.0000
  C   C38       1.0  0.15213  0.33551  0.35211  1.0000
  H   H37       1.0  0.21829  0.27345  0.38192  1.0000
  H   H38       1.0  0.14844  0.35991  0.34201  1.0000
  H   H39       1.0  0.09151  0.27081  0.37838  1.0000
  C   C39       1.0  0.22946  0.33977  0.35788  1.0000
  C   C40       1.0  0.26951  0.32632  0.37489  1.0000
  C   C41       1.0  0.30601  0.34449  0.36470  1.0000
  C   C42       1.0  0.30241  0.37847  0.35070  1.0000
  C   C43       1.0  0.26432  0.39355  0.33817  1.0000
  C   C44       1.0  0.22907  0.37396  0.33617  1.0000
  H   H40       1.0  0.27329  0.30216  0.39001  1.0000
  H   H41       1.0  0.32807  0.39262  0.35070  1.0000
  H   H42       1.0  0.20257  0.38632  0.32547  1.0000
  N   N21       1.0  0.26373  0.42661  0.33430  1.0000
  N   N22       1.0  0.34417  0.33100  0.37287  1.0000
  N   N23       1.0  0.07804  0.33316  0.36008  1.0000
  N   N24       1.0  0.15300  0.23495  0.38052  1.0000
  C   C45       1.0  0.74158  0.71202  0.36391  1.0000
  C   C46       1.0  0.74024  0.74691  0.36651  1.0000
  C   C47       1.0  0.77482  0.76633  0.34913  1.0000
  C   C48       1.0  0.81250  0.75104  0.33679  1.0000
  C   C49       1.0  0.81797  0.71722  0.35202  1.0000
  C   C50       1.0  0.78201  0.69832  0.35986  1.0000
  H   H43       1.0  0.71336  0.75920  0.37075  1.0000
  H   H44       1.0  0.78654  0.67389  0.36951  1.0000
  H   H45       1.0  0.83711  0.76547  0.32338  1.0000
  C   C51       1.0  0.70487  0.69245  0.36451  1.0000
  C   C52       1.0  0.66466  0.70510  0.38018  1.0000
  C   C53       1.0  0.62859  0.68637  0.37024  1.0000
  C   C54       1.0  0.63302  0.65257  0.35772  1.0000
  C   C55       1.0  0.67145  0.63824  0.34693  1.0000
  C   C56       1.0  0.70619  0.65844  0.34490  1.0000
  H   H46       1.0  0.66042  0.72910  0.39391  1.0000
  H   H47       1.0  0.60770  0.63803  0.35717  1.0000
  H   H48       1.0  0.73304  0.64703  0.33243  1.0000
  N   N25       1.0  0.67273  0.60525  0.34316  1.0000
  N   N26       1.0  0.59022  0.69938  0.37592  1.0000
  N   N27       1.0  0.85628  0.70358  0.36103  1.0000
  N   N28       1.0  0.77655  0.79932  0.34615  1.0000
  C   C57       1.0  0.73043  0.32571  0.36389  1.0000
  C   C58       1.0  0.73047  0.29139  0.34818  1.0000
  C   C59       1.0  0.76669  0.27354  0.33523  1.0000
  C   C60       1.0  0.80402  0.28992  0.32933  1.0000
  C   C61       1.0  0.80688  0.32303  0.35143  1.0000
  C   C62       1.0  0.77041  0.33973  0.37221  1.0000
  H   H49       1.0  0.70446  0.27806  0.35214  1.0000
  H   H50       1.0  0.83021  0.27653  0.32273  1.0000
  C   C63       1.0  0.69300  0.34430  0.37221  1.0000
  C   C64       1.0  0.65294  0.33077  0.36155  1.0000
  C   C65       1.0  0.61641  0.34909  0.37008  1.0000
  C   C66       1.0  0.61976  0.38317  0.37863  1.0000
  C   C67       1.0  0.65792  0.39832  0.38415  1.0000
  C   C68       1.0  0.69345  0.37871  0.38583  1.0000
  H   H51       1.0  0.64920  0.30656  0.35018  1.0000
  H   H52       1.0  0.59406  0.39744  0.37573  1.0000
  H   H53       1.0  0.72011  0.39110  0.38681  1.0000
  N   N29       1.0  0.65914  0.43131  0.37508  1.0000
  N   N30       1.0  0.57889  0.33505  0.36067  1.0000
  N   N31       1.0  0.76939  0.24075  0.34095  1.0000
  C   C69       1.0  0.20410  0.70686  0.36650  1.0000
  C   C70       1.0  0.20476  0.74167  0.37194  1.0000
  C   C71       1.0  0.16891  0.76059  0.37769  1.0000
  C   C72       1.0  0.13091  0.74515  0.37701  1.0000
  C   C73       1.0  0.12772  0.71124  0.36995  1.0000
  C   C74       1.0  0.16403  0.69269  0.36370  1.0000
  H   H54       1.0  0.23145  0.75410  0.37720  1.0000
  H   H55       1.0  0.10492  0.75904  0.37953  1.0000
  C   C75       1.0  0.24134  0.68777  0.36634  1.0000
  C   C76       1.0  0.28116  0.70139  0.35374  1.0000
  C   C77       1.0  0.31772  0.68276  0.35990  1.0000
  C   C78       1.0  0.31422  0.64853  0.36666  1.0000
  C   C79       1.0  0.27609  0.63345  0.37403  1.0000
  C   C80       1.0  0.24084  0.65318  0.37942  1.0000
  H   H56       1.0  0.28464  0.72579  0.34223  1.0000
  H   H57       1.0  0.33974  0.63420  0.36223  1.0000
  H   H58       1.0  0.21415  0.64109  0.38751  1.0000
  N   N32       1.0  0.27453  0.60061  0.36515  1.0000
  N   N33       1.0  0.35525  0.69681  0.35150  1.0000
  N   N34       1.0  0.16770  0.79325  0.38660  1.0000
  C   C81       1.0  0.15935  0.17936  0.38484  1.0000
  N   N35       1.0  0.14166  0.16177  0.45240  1.0000
  N   N36       1.0  0.12374  0.13361  0.44016  1.0000
  C   C82       1.0  0.17745  0.20956  0.40368  1.0000
  H   H59       1.0  0.19166  0.21262  0.46463  1.0000
  C   C83       1.0  0.77240  0.85520  0.36172  1.0000
  N   N37       1.0  0.78945  0.87176  0.43142  1.0000
  N   N38       1.0  0.80823  0.89976  0.42149  1.0000
  C   C84       1.0  0.75525  0.82441  0.37953  1.0000
  H   H60       1.0  0.74304  0.81954  0.44142  1.0000
  C   C85       1.0  0.84105  0.13091  0.36760  1.0000
  C   C86       1.0  0.85502  0.16203  0.39211  1.0000
  C   C87       1.0  0.82819  0.18906  0.39349  1.0000
  C   C88       1.0  0.78749  0.18446  0.36079  1.0000
  N   N39       1.0  0.84229  0.21672  0.43252  1.0000
  H   H61       1.0  0.86981  0.21767  0.45762  1.0000
  H   H62       1.0  0.82346  0.23292  0.45433  1.0000
  H   H63       1.0  0.88442  0.16463  0.41507  1.0000
  C   C89       1.0  0.86790  0.10413  0.37290  1.0000
  H   H64       1.0  0.89705  0.10873  0.39383  1.0000
  C   C90       1.0  0.75804  0.20930  0.34629  1.0000
  C   C91       1.0  0.09594  0.90243  0.40061  1.0000
  C   C92       1.0  0.08286  0.87147  0.43116  1.0000
  C   C93       1.0  0.11021  0.84478  0.43765  1.0000
  C   C94       1.0  0.15034  0.84941  0.40400  1.0000
  N   N40       1.0  0.09727  0.81727  0.48126  1.0000
  H   H65       1.0  0.07021  0.81623  0.50701  1.0000
  H   H66       1.0  0.11677  0.80131  0.50472  1.0000
  H   H67       1.0  0.05379  0.86878  0.45438  1.0000
  C   C95       1.0  0.06864  0.92895  0.39981  1.0000
  H   H68       1.0  0.03964  0.92431  0.42042  1.0000
  C   C96       1.0  0.17955  0.82455  0.39170  1.0000
  C   C97       1.0  0.24728  0.54689  0.35933  1.0000
  N   N41       1.0  0.24730  0.52194  0.42106  1.0000
  N   N42       1.0  0.24609  0.49119  0.39936  1.0000
  C   C98       1.0  0.24619  0.57884  0.39176  1.0000
  H   H69       1.0  0.23368  0.58292  0.45341  1.0000
  C   C99       1.0  0.68713  0.48501  0.36821  1.0000
  N   N43       1.0  0.69054  0.50886  0.43026  1.0000
  N   N44       1.0  0.69239  0.53993  0.40917  1.0000
  C   C100      1.0  0.68836  0.45255  0.40021  1.0000
  H   H70       1.0  0.70261  0.44729  0.46068  1.0000
  C   C101      1.0  0.00453  0.33293  0.39646  1.0000
  C   C102      1.0  0.97585  0.33338  0.46658  1.0000
  C   C103      1.0  0.93331  0.33569  0.44828  1.0000
  C   C104      1.0  0.92024  0.33476  0.35625  1.0000
  N   N45       1.0  0.90782  0.33575  0.51977  1.0000
  H   H71       1.0  0.91832  0.33580  0.58141  1.0000
  H   H72       1.0  0.87849  0.33681  0.51248  1.0000
  H   H73       1.0  0.98614  0.33196  0.53209  1.0000
  C   C105      1.0  0.04600  0.32576  0.41390  1.0000
  H   H74       1.0  0.05303  0.31499  0.47518  1.0000
  C   C106      1.0  0.88008  0.32961  0.32360  1.0000
  C   C107      1.0  0.93248  0.70913  0.38310  1.0000
  C   C108      1.0  0.96295  0.73036  0.41589  1.0000
  C   C109      1.0  0.00459  0.72125  0.41975  1.0000
  C   C110      1.0  0.01583  0.69085  0.38184  1.0000
  N   N46       1.0  0.03068  0.74115  0.46474  1.0000
  H   H75       1.0  0.02083  0.76079  0.49325  1.0000
  H   H76       1.0  0.05672  0.73289  0.48689  1.0000
  H   H77       1.0  0.95455  0.75237  0.44170  1.0000
  C   C111      1.0  0.89143  0.71989  0.38122  1.0000
  H   H78       1.0  0.88743  0.74315  0.40327  1.0000
  C   C112      1.0  0.05624  0.67959  0.36866  1.0000
  C   C113      1.0  0.41801  0.33374  0.33465  1.0000
  C   C114      1.0  0.50281  0.33699  0.36978  1.0000
  N   N47       1.0  0.47354  0.33862  0.43412  1.0000
  N   N48       1.0  0.43413  0.33652  0.41889  1.0000
  C   C115      1.0  0.37588  0.33844  0.31774  1.0000
  C   C116      1.0  0.54308  0.34448  0.39793  1.0000
  H   H79       1.0  0.54584  0.35716  0.45659  1.0000
  C   C117      1.0  0.51630  0.69708  0.33398  1.0000
  C   C118      1.0  0.43149  0.69413  0.36431  1.0000
  N   N49       1.0  0.46088  0.69139  0.43029  1.0000
  N   N50       1.0  0.50029  0.69336  0.41731  1.0000
  C   C119      1.0  0.55836  0.69223  0.31956  1.0000
  C   C120      1.0  0.39118  0.68653  0.39012  1.0000
  H   H80       1.0  0.38850  0.67300  0.44857  1.0000
