data_image0
_chemical_formula_structural       CNC2NC4NC18H14C2NC16H12C3NC2NC5NC4NC18H14CNC16H12C11H11CNCNC4NC16H13NCHNCHNCHNCHNCHNCHNCHNCHNCHNCHNCHNCHC7NC12H12C2NC3NC3NC18H14C12H12C3NC3NC3NC18H14C3NC3NC2NC5NC20H15C8NC14H13C2NC2OH3C2NC2OH3C2NC2OH3C2NC2OH3C2NC2OH3C2NC2OH3C2NC2OH3C2NC2OH3C2NC2OH3C2NC2OH3C2NC2OH3C2NC2OH3
_chemical_formula_sum              "C324 N48 H204 O12"
_cell_length_a       56.8927
_cell_length_b       56.8926
_cell_length_c       14.9836
_cell_angle_alpha    90.0018
_cell_angle_beta     89.9654
_cell_angle_gamma    120

_space_group_name_H-M_alt    "P 1"
_space_group_IT_number       1

loop_
  _space_group_symop_operation_xyz
  'x, y, z'

loop_
  _atom_site_type_symbol
  _atom_site_label
  _atom_site_symmetry_multiplicity
  _atom_site_fract_x
  _atom_site_fract_y
  _atom_site_fract_z
  _atom_site_occupancy
  C   C1        1.0  0.28824  0.53095  0.32172  1.0000
  N   N1        1.0  0.27910  0.48882  0.33366  1.0000
  C   C2        1.0  0.30650  0.50388  0.32707  1.0000
  C   C3        1.0  0.32623  0.49549  0.32781  1.0000
  N   N2        1.0  0.29551  0.44552  0.33351  1.0000
  C   C4        1.0  0.29731  0.42274  0.33552  1.0000
  C   C5        1.0  0.32503  0.43136  0.33405  1.0000
  C   C6        1.0  0.33917  0.45936  0.33145  1.0000
  C   C7        1.0  0.27572  0.39541  0.33919  1.0000
  N   N3        1.0  0.23555  0.40261  0.34171  1.0000
  C   C8        1.0  0.20812  0.38753  0.34746  1.0000
  C   C9        1.0  0.22649  0.36044  0.34954  1.0000
  C   C10       1.0  0.21753  0.46895  0.34159  1.0000
  C   C11       1.0  0.23908  0.49625  0.33744  1.0000
  C   C12       1.0  0.23228  0.51721  0.34021  1.0000
  C   C13       1.0  0.22223  0.52377  0.26368  1.0000
  C   C14       1.0  0.21776  0.54595  0.26476  1.0000
  C   C15       1.0  0.22320  0.56214  0.34216  1.0000
  C   C16       1.0  0.14661  0.36079  0.27733  1.0000
  C   C17       1.0  0.11841  0.34278  0.27967  1.0000
  C   C18       1.0  0.28311  0.37489  0.33975  1.0000
  C   C19       1.0  0.30534  0.33967  0.34083  1.0000
  C   C20       1.0  0.29982  0.34871  0.25956  1.0000
  C   C21       1.0  0.28887  0.36607  0.25888  1.0000
  C   C22       1.0  0.35404  0.51616  0.32641  1.0000
  C   C23       1.0  0.36735  0.52737  0.24480  1.0000
  C   C24       1.0  0.39368  0.55012  0.24419  1.0000
  C   C25       1.0  0.40743  0.56224  0.32482  1.0000
  H   H1        1.0  0.40254  0.55791  0.18379  1.0000
  H   H2        1.0  0.35760  0.51968  0.18544  1.0000
  H   H3        1.0  0.28682  0.54811  0.31664  1.0000
  H   H4        1.0  0.26939  0.46951  0.34226  1.0000
  H   H5        1.0  0.24533  0.42203  0.33642  1.0000
  H   H6        1.0  0.35984  0.47109  0.32982  1.0000
  H   H7        1.0  0.33386  0.41953  0.33525  1.0000
  H   H8        1.0  0.28607  0.37302  0.19905  1.0000
  H   H9        1.0  0.30406  0.34306  0.19960  1.0000
  H   H10       1.0  0.22803  0.34331  0.35267  1.0000
  H   H11       1.0  0.15681  0.36366  0.21839  1.0000
  H   H12       1.0  0.10889  0.33280  0.22228  1.0000
  H   H13       1.0  0.21089  0.55049  0.20781  1.0000
  H   H14       1.0  0.21875  0.51285  0.20605  1.0000
  C   C26       1.0  0.53779  0.75758  0.32017  1.0000
  C   C27       1.0  0.56482  0.80290  0.32667  1.0000
  N   N4        1.0  0.62314  0.85026  0.33389  1.0000
  C   C28       1.0  0.64591  0.87485  0.33632  1.0000
  C   C29       1.0  0.63728  0.89394  0.33557  1.0000
  C   C30       1.0  0.60928  0.88008  0.33298  1.0000
  C   C31       1.0  0.67324  0.88059  0.33959  1.0000
  C   C32       1.0  0.68115  0.82089  0.34738  1.0000
  C   C33       1.0  0.70825  0.86635  0.34864  1.0000
  C   C34       1.0  0.59973  0.74887  0.34220  1.0000
  C   C35       1.0  0.54504  0.69869  0.26418  1.0000
  C   C36       1.0  0.52284  0.67203  0.26529  1.0000
  C   C37       1.0  0.70780  0.78596  0.27759  1.0000
  C   C38       1.0  0.72581  0.77579  0.28001  1.0000
  C   C39       1.0  0.69375  0.90850  0.34006  1.0000
  C   C40       1.0  0.71982  0.95139  0.25975  1.0000
  C   C41       1.0  0.70247  0.92308  0.25915  1.0000
  C   C42       1.0  0.54142  0.84039  0.24515  1.0000
  C   C43       1.0  0.51869  0.84400  0.24446  1.0000
  H   H15       1.0  0.51101  0.84521  0.18405  1.0000
  H   H16       1.0  0.54923  0.83849  0.18579  1.0000
  H   H17       1.0  0.52066  0.73900  0.31459  1.0000
  H   H18       1.0  0.59754  0.88901  0.33174  1.0000
  H   H19       1.0  0.64910  0.91460  0.33716  1.0000
  H   H20       1.0  0.69544  0.91333  0.19937  1.0000
  H   H21       1.0  0.72538  0.96128  0.19977  1.0000
  H   H22       1.0  0.72537  0.88502  0.35165  1.0000
  H   H23       1.0  0.70488  0.79320  0.21855  1.0000
  H   H24       1.0  0.73573  0.77614  0.22254  1.0000
  H   H25       1.0  0.51841  0.66057  0.20850  1.0000
  H   H26       1.0  0.55606  0.70607  0.20666  1.0000
  C   C44       1.0  0.28682  0.75637  0.31819  1.0000
  C   C45       1.0  0.31113  0.78050  0.32043  1.0000
  C   C46       1.0  0.30556  0.80166  0.33085  1.0000
  N   N5        1.0  0.27813  0.78960  0.33313  1.0000
  C   C47       1.0  0.26580  0.76222  0.32627  1.0000
  C   C48       1.0  0.23769  0.74247  0.32737  1.0000
  N   N6        1.0  0.21842  0.77317  0.33307  1.0000
  C   C49       1.0  0.19384  0.77137  0.33531  1.0000
  C   C50       1.0  0.17475  0.74365  0.33427  1.0000
  C   C51       1.0  0.18861  0.72951  0.33167  1.0000
  C   C52       1.0  0.18809  0.79295  0.33875  1.0000
  C   C53       1.0  0.20798  0.82100  0.34223  1.0000
  N   N7        1.0  0.23544  0.83313  0.34123  1.0000
  C   C54       1.0  0.24779  0.86056  0.34682  1.0000
  C   C55       1.0  0.22668  0.86637  0.35157  1.0000
  C   C56       1.0  0.20233  0.84219  0.34831  1.0000
  C   C57       1.0  0.27595  0.88025  0.34888  1.0000
  N   N8        1.0  0.29523  0.84943  0.34182  1.0000
  C   C58       1.0  0.31982  0.85117  0.34150  1.0000
  C   C59       1.0  0.32557  0.82963  0.33714  1.0000
  C   C60       1.0  0.35332  0.83641  0.34008  1.0000
  C   C61       1.0  0.37004  0.84664  0.26380  1.0000
  C   C62       1.0  0.39671  0.85112  0.26502  1.0000
  C   C63       1.0  0.40733  0.84551  0.34234  1.0000
  C   C64       1.0  0.28354  0.90822  0.35400  1.0000
  C   C65       1.0  0.28268  0.92213  0.27711  1.0000
  C   C66       1.0  0.29283  0.95032  0.27959  1.0000
  C   C67       1.0  0.30417  0.96540  0.35870  1.0000
  C   C68       1.0  0.16018  0.78555  0.33932  1.0000
  C   C69       1.0  0.10271  0.76327  0.34044  1.0000
  C   C70       1.0  0.11729  0.76874  0.25916  1.0000
  C   C71       1.0  0.14560  0.77971  0.25846  1.0000
  C   C72       1.0  0.23057  0.71466  0.32601  1.0000
  C   C73       1.0  0.22846  0.70136  0.24441  1.0000
  C   C74       1.0  0.22489  0.67504  0.24381  1.0000
  C   C75       1.0  0.22323  0.66127  0.32446  1.0000
  H   H27       1.0  0.22380  0.66617  0.18342  1.0000
  H   H28       1.0  0.23052  0.71112  0.18504  1.0000
  H   H29       1.0  0.32972  0.78194  0.31510  1.0000
  H   H30       1.0  0.26853  0.79928  0.34266  1.0000
  H   H31       1.0  0.24510  0.82335  0.33662  1.0000
  H   H32       1.0  0.17968  0.70884  0.33029  1.0000
  H   H33       1.0  0.15408  0.73480  0.33570  1.0000
  H   H34       1.0  0.15536  0.78247  0.19863  1.0000
  H   H35       1.0  0.10740  0.76444  0.19921  1.0000
  H   H36       1.0  0.18366  0.84064  0.35131  1.0000
  H   H37       1.0  0.27544  0.91199  0.21807  1.0000
  H   H38       1.0  0.29247  0.95989  0.22216  1.0000
  H   H39       1.0  0.40819  0.85813  0.20826  1.0000
  H   H40       1.0  0.36268  0.85025  0.20622  1.0000
  C   C76       1.0  0.78487  0.54211  0.32763  1.0000
  N   N9        1.0  0.79586  0.60046  0.33411  1.0000
  C   C77       1.0  0.79407  0.62324  0.33620  1.0000
  C   C78       1.0  0.76635  0.61462  0.33497  1.0000
  C   C79       1.0  0.75221  0.58663  0.33239  1.0000
  C   C80       1.0  0.81566  0.65057  0.33971  1.0000
  C   C81       1.0  0.88326  0.65846  0.34762  1.0000
  C   C82       1.0  0.86490  0.68555  0.34941  1.0000
  C   C83       1.0  0.87384  0.57702  0.34208  1.0000
  C   C84       1.0  0.86921  0.52224  0.26430  1.0000
  C   C85       1.0  0.87367  0.50004  0.26543  1.0000
  C   C86       1.0  0.94480  0.68513  0.27754  1.0000
  C   C87       1.0  0.97299  0.70314  0.27983  1.0000
  C   C88       1.0  0.80827  0.67109  0.34020  1.0000
  C   C89       1.0  0.79151  0.69720  0.25995  1.0000
  C   C90       1.0  0.80250  0.67988  0.25931  1.0000
  C   C91       1.0  0.72407  0.51860  0.24550  1.0000
  C   C92       1.0  0.69774  0.49586  0.24488  1.0000
  H   H41       1.0  0.68891  0.48806  0.18450  1.0000
  H   H42       1.0  0.73385  0.52629  0.18615  1.0000
  H   H43       1.0  0.80456  0.49788  0.31696  1.0000
  H   H44       1.0  0.73153  0.57489  0.33096  1.0000
  H   H45       1.0  0.75752  0.62646  0.33632  1.0000
  H   H46       1.0  0.80524  0.67287  0.19951  1.0000
  H   H47       1.0  0.78723  0.70280  0.19999  1.0000
  H   H48       1.0  0.86336  0.70268  0.35252  1.0000
  H   H49       1.0  0.93463  0.68222  0.21855  1.0000
  H   H50       1.0  0.98254  0.71306  0.22235  1.0000
  H   H51       1.0  0.88060  0.49554  0.20855  1.0000
  H   H52       1.0  0.87274  0.53318  0.20668  1.0000
  C   C93       1.0  0.44544  0.17113  0.33626  1.0000
  C   C94       1.0  0.45407  0.15203  0.33478  1.0000
  C   C95       1.0  0.48206  0.16589  0.33226  1.0000
  C   C96       1.0  0.54647  0.34724  0.26470  1.0000
  C   C97       1.0  0.56866  0.37391  0.26579  1.0000
  C   C98       1.0  0.38350  0.25988  0.27797  1.0000
  C   C99       1.0  0.36548  0.27005  0.28023  1.0000
  C   C100      1.0  0.37148  0.09464  0.25984  1.0000
  C   C101      1.0  0.38883  0.12295  0.25931  1.0000
  C   C102      1.0  0.55007  0.20574  0.24566  1.0000
  C   C103      1.0  0.57282  0.20216  0.24497  1.0000
  H   H53       1.0  0.58060  0.20110  0.18455  1.0000
  H   H54       1.0  0.54237  0.20780  0.18632  1.0000
  H   H55       1.0  0.57081  0.30700  0.31773  1.0000
  H   H56       1.0  0.49380  0.15696  0.33064  1.0000
  H   H57       1.0  0.39581  0.13273  0.19953  1.0000
  H   H58       1.0  0.36586  0.08478  0.19983  1.0000
  H   H59       1.0  0.36601  0.16097  0.35319  1.0000
  H   H60       1.0  0.38637  0.25255  0.21905  1.0000
  H   H61       1.0  0.35551  0.26959  0.22282  1.0000
  H   H62       1.0  0.57320  0.38531  0.20883  1.0000
  H   H63       1.0  0.53557  0.33981  0.20705  1.0000
  C   C104      1.0  0.78028  0.26548  0.32039  1.0000
  N   N10       1.0  0.81327  0.25638  0.33363  1.0000
  C   C105      1.0  0.82560  0.28377  0.32671  1.0000
  N   N11       1.0  0.87297  0.27282  0.33373  1.0000
  C   C106      1.0  0.89755  0.27462  0.33607  1.0000
  C   C107      1.0  0.91664  0.30235  0.33526  1.0000
  C   C108      1.0  0.90278  0.31648  0.33273  1.0000
  C   C109      1.0  0.90330  0.25304  0.33932  1.0000
  N   N12       1.0  0.85594  0.21286  0.34173  1.0000
  C   C110      1.0  0.84360  0.18542  0.34718  1.0000
  C   C111      1.0  0.88905  0.20379  0.34842  1.0000
  C   C112      1.0  0.77157  0.19483  0.34222  1.0000
  C   C113      1.0  0.76583  0.21637  0.33774  1.0000
  C   C114      1.0  0.72138  0.19936  0.26442  1.0000
  C   C115      1.0  0.69472  0.19489  0.26564  1.0000
  C   C116      1.0  0.68407  0.20053  0.34291  1.0000
  C   C117      1.0  0.80867  0.12387  0.27739  1.0000
  C   C118      1.0  0.79849  0.09568  0.27979  1.0000
  C   C119      1.0  0.93120  0.26043  0.33978  1.0000
  C   C120      1.0  0.98867  0.28269  0.34065  1.0000
  C   C121      1.0  0.97409  0.27722  0.25943  1.0000
  C   C122      1.0  0.94578  0.26626  0.25885  1.0000
  C   C123      1.0  0.86083  0.33133  0.32677  1.0000
  C   C124      1.0  0.86303  0.34467  0.24518  1.0000
  C   C125      1.0  0.86663  0.37100  0.24458  1.0000
  H   H64       1.0  0.86780  0.37991  0.18419  1.0000
  H   H65       1.0  0.86110  0.33496  0.18580  1.0000
  H   H66       1.0  0.76170  0.26403  0.31491  1.0000
  H   H67       1.0  0.82286  0.24673  0.34403  1.0000
  H   H68       1.0  0.91171  0.33716  0.33147  1.0000
  H   H69       1.0  0.93730  0.31119  0.33676  1.0000
  H   H70       1.0  0.93603  0.26352  0.19907  1.0000
  H   H71       1.0  0.98398  0.28152  0.19945  1.0000
  H   H72       1.0  0.90772  0.20533  0.35142  1.0000
  H   H73       1.0  0.81590  0.13403  0.21835  1.0000
  H   H74       1.0  0.79884  0.08612  0.22231  1.0000
  H   H75       1.0  0.68326  0.18789  0.20887  1.0000
  H   H76       1.0  0.72875  0.19574  0.20686  1.0000
  N   N13       1.0  0.23414  0.60365  0.27184  1.0000
  C   C126      1.0  0.23483  0.62764  0.26153  1.0000
  H   H77       1.0  0.24591  0.64005  0.21016  1.0000
  N   N14       1.0  0.46508  0.63075  0.27201  1.0000
  C   C127      1.0  0.44110  0.60746  0.26175  1.0000
  H   H78       1.0  0.42875  0.60607  0.21014  1.0000
  N   N15       1.0  0.43802  0.83472  0.27193  1.0000
  C   C128      1.0  0.46132  0.83404  0.26171  1.0000
  H   H79       1.0  0.46273  0.82306  0.21018  1.0000
  N   N16       1.0  0.85729  0.44234  0.27247  1.0000
  C   C129      1.0  0.85659  0.41836  0.26222  1.0000
  H   H80       1.0  0.84561  0.40598  0.21069  1.0000
  N   N17       1.0  0.62636  0.41523  0.27295  1.0000
  C   C130      1.0  0.65034  0.43852  0.26264  1.0000
  H   H81       1.0  0.66276  0.43986  0.21131  1.0000
  N   N18       1.0  0.65345  0.21138  0.27255  1.0000
  C   C131      1.0  0.63015  0.21208  0.26236  1.0000
  H   H82       1.0  0.62876  0.22304  0.21077  1.0000
  N   N19       1.0  0.06165  0.32870  0.29040  1.0000
  C   C132      1.0  0.03437  0.31595  0.28013  1.0000
  H   H83       1.0  0.02658  0.32202  0.22959  1.0000
  N   N20       1.0  0.73994  0.73318  0.29111  1.0000
  C   C133      1.0  0.75266  0.71862  0.28090  1.0000
  H   H84       1.0  0.74662  0.70476  0.23036  1.0000
  N   N21       1.0  0.33545  0.00707  0.29063  1.0000
  C   C134      1.0  0.34999  0.03435  0.28044  1.0000
  H   H85       1.0  0.36389  0.04218  0.22995  1.0000
  N   N22       1.0  0.02974  0.71722  0.29053  1.0000
  C   C135      1.0  0.05702  0.72994  0.28021  1.0000
  H   H86       1.0  0.06482  0.72389  0.22962  1.0000
  N   N23       1.0  0.35136  0.31270  0.29075  1.0000
  C   C136      1.0  0.33861  0.32722  0.28039  1.0000
  H   H87       1.0  0.34466  0.34107  0.22979  1.0000
  N   N24       1.0  0.75587  0.03894  0.29092  1.0000
  C   C137      1.0  0.74131  0.01167  0.28071  1.0000
  H   H88       1.0  0.72743  0.00386  0.23021  1.0000
  C   C138      1.0  0.31237  0.53076  0.31953  1.0000
  C   C139      1.0  0.26706  0.50422  0.33156  1.0000
  C   C140      1.0  0.32024  0.46814  0.33108  1.0000
  C   C141      1.0  0.24767  0.38726  0.34296  1.0000
  C   C142      1.0  0.20231  0.36061  0.35267  1.0000
  C   C143      1.0  0.18844  0.39601  0.34916  1.0000
  C   C144      1.0  0.19456  0.42349  0.34629  1.0000
  N   N25       1.0  0.21927  0.44611  0.34221  1.0000
  C   C145      1.0  0.18991  0.46047  0.34570  1.0000
  C   C146      1.0  0.17576  0.43248  0.34732  1.0000
  C   C147      1.0  0.23350  0.55560  0.41823  1.0000
  C   C148      1.0  0.23769  0.53325  0.41771  1.0000
  C   C149      1.0  0.16045  0.37563  0.35418  1.0000
  C   C150      1.0  0.10328  0.33910  0.35866  1.0000
  C   C151      1.0  0.11729  0.35404  0.43533  1.0000
  C   C152      1.0  0.14553  0.37177  0.43359  1.0000
  C   C153      1.0  0.28771  0.36535  0.42112  1.0000
  C   C154      1.0  0.29844  0.34779  0.42148  1.0000
  C   C155      1.0  0.36781  0.52755  0.40716  1.0000
  C   C156      1.0  0.39423  0.55012  0.40623  1.0000
  H   H89       1.0  0.40312  0.55848  0.46612  1.0000
  H   H90       1.0  0.35835  0.52010  0.46714  1.0000
  H   H91       1.0  0.33102  0.54776  0.31296  1.0000
  H   H92       1.0  0.28431  0.37199  0.48065  1.0000
  H   H93       1.0  0.30256  0.34221  0.48182  1.0000
  H   H94       1.0  0.18364  0.34360  0.35863  1.0000
  H   H95       1.0  0.18114  0.47236  0.34614  1.0000
  H   H96       1.0  0.15508  0.42092  0.34953  1.0000
  H   H97       1.0  0.15492  0.38295  0.48933  1.0000
  H   H98       1.0  0.10691  0.35338  0.49186  1.0000
  H   H99       1.0  0.24582  0.52947  0.47307  1.0000
  H   H100      1.0  0.23943  0.56785  0.47328  1.0000
  C   C157      1.0  0.53797  0.78189  0.31804  1.0000
  C   C158      1.0  0.56449  0.76314  0.33112  1.0000
  N   N26       1.0  0.57988  0.79057  0.33363  1.0000
  C   C159      1.0  0.57317  0.83101  0.32815  1.0000
  C   C160      1.0  0.60051  0.85237  0.33192  1.0000
  C   C161      1.0  0.68141  0.86071  0.34287  1.0000
  N   N27       1.0  0.66606  0.83324  0.34195  1.0000
  C   C162      1.0  0.70808  0.84200  0.35191  1.0000
  C   C163      1.0  0.67267  0.79273  0.34951  1.0000
  C   C164      1.0  0.64519  0.77138  0.34696  1.0000
  N   N28       1.0  0.62258  0.77345  0.34242  1.0000
  C   C165      1.0  0.60820  0.72973  0.34697  1.0000
  C   C166      1.0  0.63619  0.74357  0.34870  1.0000
  C   C167      1.0  0.57244  0.74312  0.33764  1.0000
  C   C168      1.0  0.55147  0.71537  0.34048  1.0000
  C   C169      1.0  0.50654  0.66137  0.34250  1.0000
  C   C170      1.0  0.51292  0.67830  0.41831  1.0000
  C   C171      1.0  0.53530  0.70481  0.41782  1.0000
  C   C172      1.0  0.69305  0.78513  0.35454  1.0000
  C   C173      1.0  0.72958  0.76448  0.35917  1.0000
  C   C174      1.0  0.71474  0.76372  0.43597  1.0000
  C   C175      1.0  0.69699  0.77421  0.43410  1.0000
  C   C176      1.0  0.70338  0.92265  0.42138  1.0000
  C   C177      1.0  0.72093  0.95095  0.42165  1.0000
  C   C178      1.0  0.72895  0.96597  0.34098  1.0000
  C   C179      1.0  0.55249  0.83813  0.32677  1.0000
  C   C180      1.0  0.54096  0.84035  0.40749  1.0000
  C   C181      1.0  0.50645  0.84549  0.32506  1.0000
  C   C182      1.0  0.51841  0.84423  0.40651  1.0000
  H   H101      1.0  0.50996  0.84466  0.46637  1.0000
  H   H102      1.0  0.54831  0.83822  0.46748  1.0000
  H   H103      1.0  0.52099  0.78354  0.31096  1.0000
  H   H104      1.0  0.59910  0.80015  0.34414  1.0000
  H   H105      1.0  0.64662  0.82359  0.33761  1.0000
  H   H106      1.0  0.69686  0.91261  0.48093  1.0000
  H   H107      1.0  0.72662  0.96065  0.48196  1.0000
  H   H108      1.0  0.72510  0.84035  0.35755  1.0000
  H   H109      1.0  0.59630  0.70907  0.34792  1.0000
  H   H110      1.0  0.64774  0.73445  0.35133  1.0000
  H   H111      1.0  0.68587  0.77252  0.48996  1.0000
  H   H112      1.0  0.71541  0.75406  0.49258  1.0000
  H   H113      1.0  0.53897  0.71680  0.47294  1.0000
  H   H114      1.0  0.50059  0.67201  0.47321  1.0000
  C   C183      1.0  0.21632  0.74845  0.33092  1.0000
  C   C184      1.0  0.29731  0.87413  0.34623  1.0000
  C   C185      1.0  0.33895  0.87879  0.34607  1.0000
  C   C186      1.0  0.32511  0.89293  0.34782  1.0000
  C   C187      1.0  0.39037  0.83499  0.41811  1.0000
  C   C188      1.0  0.36385  0.83084  0.41751  1.0000
  C   C189      1.0  0.30499  0.95132  0.43538  1.0000
  C   C190      1.0  0.29445  0.92307  0.43357  1.0000
  C   C191      1.0  0.14602  0.78098  0.42068  1.0000
  C   C192      1.0  0.11772  0.77026  0.42107  1.0000
  C   C193      1.0  0.22818  0.70088  0.40677  1.0000
  C   C194      1.0  0.22434  0.67447  0.40585  1.0000
  H   H115      1.0  0.22374  0.66554  0.46574  1.0000
  H   H116      1.0  0.23018  0.71033  0.46674  1.0000
  H   H117      1.0  0.28517  0.73773  0.31136  1.0000
  H   H118      1.0  0.15606  0.78448  0.48021  1.0000
  H   H119      1.0  0.10802  0.76617  0.48140  1.0000
  H   H120      1.0  0.22832  0.88504  0.35733  1.0000
  H   H121      1.0  0.35961  0.88755  0.34703  1.0000
  H   H122      1.0  0.33422  0.91360  0.35039  1.0000
  H   H123      1.0  0.29621  0.91365  0.48930  1.0000
  H   H124      1.0  0.31465  0.96166  0.49199  1.0000
  H   H125      1.0  0.35185  0.82258  0.47267  1.0000
  H   H126      1.0  0.39664  0.82900  0.47313  1.0000
  C   C195      1.0  0.77901  0.51523  0.32001  1.0000
  C   C196      1.0  0.80313  0.51504  0.32213  1.0000
  C   C197      1.0  0.82431  0.54177  0.33204  1.0000
  N   N29       1.0  0.81227  0.55716  0.33424  1.0000
  C   C198      1.0  0.76514  0.55049  0.32851  1.0000
  C   C199      1.0  0.77114  0.57784  0.33184  1.0000
  C   C200      1.0  0.84371  0.65873  0.34321  1.0000
  N   N30       1.0  0.85582  0.64338  0.34208  1.0000
  C   C201      1.0  0.88908  0.68538  0.35257  1.0000
  C   C202      1.0  0.90294  0.64997  0.34950  1.0000
  C   C203      1.0  0.89681  0.62249  0.34675  1.0000
  N   N31       1.0  0.87210  0.59987  0.34256  1.0000
  C   C204      1.0  0.90146  0.58550  0.34630  1.0000
  C   C205      1.0  0.91561  0.61349  0.34800  1.0000
  C   C206      1.0  0.85229  0.54973  0.33794  1.0000
  C   C207      1.0  0.85908  0.52876  0.34075  1.0000
  C   C208      1.0  0.86815  0.48383  0.34280  1.0000
  C   C209      1.0  0.85774  0.49032  0.41877  1.0000
  C   C210      1.0  0.85360  0.51270  0.41825  1.0000
  C   C211      1.0  0.93092  0.67035  0.35448  1.0000
  C   C212      1.0  0.98810  0.70686  0.35885  1.0000
  C   C213      1.0  0.97406  0.69196  0.43560  1.0000
  C   C214      1.0  0.94581  0.67424  0.43391  1.0000
  C   C215      1.0  0.80369  0.68067  0.42155  1.0000
  C   C216      1.0  0.79295  0.69823  0.42187  1.0000
  C   C217      1.0  0.78600  0.70628  0.34122  1.0000
  C   C218      1.0  0.73733  0.52982  0.32711  1.0000
  C   C219      1.0  0.72351  0.51846  0.40786  1.0000
  C   C220      1.0  0.68394  0.48376  0.32552  1.0000
  C   C221      1.0  0.69710  0.49587  0.40692  1.0000
  H   H127      1.0  0.68815  0.48754  0.46682  1.0000
  H   H128      1.0  0.73294  0.52590  0.46785  1.0000
  H   H129      1.0  0.76036  0.49823  0.31340  1.0000
  H   H130      1.0  0.82197  0.57647  0.34296  1.0000
  H   H131      1.0  0.84604  0.62394  0.33730  1.0000
  H   H132      1.0  0.80710  0.67406  0.48109  1.0000
  H   H133      1.0  0.78882  0.70382  0.48218  1.0000
  H   H134      1.0  0.90775  0.70239  0.35835  1.0000
  H   H135      1.0  0.91022  0.57360  0.34711  1.0000
  H   H136      1.0  0.93628  0.62504  0.35041  1.0000
  H   H137      1.0  0.93640  0.66309  0.48972  1.0000
  H   H138      1.0  0.98441  0.69264  0.49217  1.0000
  H   H139      1.0  0.84541  0.51646  0.47355  1.0000
  H   H140      1.0  0.85181  0.47808  0.47386  1.0000
  C   C222      1.0  0.55347  0.26411  0.32057  1.0000
  C   C223      1.0  0.55365  0.28842  0.32279  1.0000
  C   C224      1.0  0.52691  0.28286  0.33260  1.0000
  N   N32       1.0  0.51152  0.25542  0.33467  1.0000
  C   C225      1.0  0.52658  0.24308  0.32806  1.0000
  C   C226      1.0  0.51820  0.21497  0.32875  1.0000
  C   C227      1.0  0.49085  0.19360  0.33194  1.0000
  N   N33       1.0  0.46823  0.19571  0.33434  1.0000
  C   C228      1.0  0.41812  0.16539  0.33985  1.0000
  C   C229      1.0  0.40996  0.18528  0.34363  1.0000
  N   N34       1.0  0.42530  0.21274  0.34246  1.0000
  C   C230      1.0  0.41022  0.22509  0.34816  1.0000
  C   C231      1.0  0.38330  0.20398  0.35329  1.0000
  C   C232      1.0  0.38313  0.17964  0.35013  1.0000
  C   C233      1.0  0.41869  0.25325  0.34990  1.0000
  C   C234      1.0  0.44617  0.27461  0.34712  1.0000
  N   N35       1.0  0.46880  0.27253  0.34311  1.0000
  C   C235      1.0  0.49164  0.29712  0.34255  1.0000
  C   C236      1.0  0.48316  0.31626  0.34663  1.0000
  C   C237      1.0  0.45517  0.30241  0.34816  1.0000
  C   C238      1.0  0.51894  0.30286  0.33847  1.0000
  C   C239      1.0  0.53990  0.33062  0.34124  1.0000
  C   C240      1.0  0.58482  0.38463  0.34320  1.0000
  C   C241      1.0  0.57827  0.36779  0.41929  1.0000
  C   C242      1.0  0.55592  0.34124  0.41876  1.0000
  C   C243      1.0  0.39831  0.26085  0.35484  1.0000
  C   C244      1.0  0.36178  0.28150  0.35917  1.0000
  C   C245      1.0  0.37670  0.28243  0.43588  1.0000
  C   C246      1.0  0.39443  0.27190  0.43422  1.0000
  C   C247      1.0  0.39760  0.13748  0.34025  1.0000
  C   C248      1.0  0.38801  0.12328  0.42155  1.0000
  C   C249      1.0  0.37045  0.09498  0.42176  1.0000
  C   C250      1.0  0.36238  0.08002  0.34103  1.0000
  C   C251      1.0  0.53887  0.20783  0.32729  1.0000
  C   C252      1.0  0.55027  0.20544  0.40801  1.0000
  C   C253      1.0  0.58495  0.20052  0.32557  1.0000
  C   C254      1.0  0.57283  0.20159  0.40701  1.0000
  H   H141      1.0  0.58121  0.20105  0.46687  1.0000
  H   H142      1.0  0.54283  0.20745  0.46801  1.0000
  H   H143      1.0  0.57047  0.26246  0.31400  1.0000
  H   H144      1.0  0.49221  0.24581  0.34324  1.0000
  H   H145      1.0  0.44472  0.22239  0.33721  1.0000
  H   H146      1.0  0.44224  0.13137  0.33592  1.0000
  H   H147      1.0  0.39460  0.13328  0.48113  1.0000
  H   H148      1.0  0.36483  0.08525  0.48204  1.0000
  H   H149      1.0  0.36629  0.20564  0.35919  1.0000
  H   H150      1.0  0.49505  0.33692  0.34709  1.0000
  H   H151      1.0  0.44361  0.31153  0.35033  1.0000
  H   H152      1.0  0.40560  0.27370  0.48998  1.0000
  H   H153      1.0  0.37603  0.29214  0.49238  1.0000
  H   H154      1.0  0.55212  0.32932  0.47413  1.0000
  H   H155      1.0  0.59050  0.37410  0.47436  1.0000
  C   C255      1.0  0.80459  0.28961  0.31822  1.0000
  C   C256      1.0  0.78584  0.24433  0.33122  1.0000
  C   C257      1.0  0.85371  0.30352  0.32811  1.0000
  C   C258      1.0  0.87507  0.29754  0.33177  1.0000
  C   C259      1.0  0.88341  0.22498  0.34263  1.0000
  C   C260      1.0  0.86471  0.17961  0.35171  1.0000
  C   C261      1.0  0.81543  0.16574  0.34935  1.0000
  C   C262      1.0  0.79408  0.17187  0.34685  1.0000
  N   N36       1.0  0.79616  0.19656  0.34238  1.0000
  C   C263      1.0  0.75243  0.16721  0.34697  1.0000
  C   C264      1.0  0.76628  0.15307  0.34863  1.0000
  C   C265      1.0  0.73807  0.20959  0.34068  1.0000
  C   C266      1.0  0.70101  0.21105  0.41867  1.0000
  C   C267      1.0  0.72753  0.21518  0.41809  1.0000
  C   C268      1.0  0.80784  0.13776  0.35436  1.0000
  C   C269      1.0  0.78719  0.08058  0.35895  1.0000
  C   C270      1.0  0.78643  0.09464  0.43577  1.0000
  C   C271      1.0  0.79692  0.12289  0.43392  1.0000
  C   C272      1.0  0.94536  0.26498  0.42109  1.0000
  C   C273      1.0  0.97365  0.27573  0.42134  1.0000
  C   C274      1.0  0.86309  0.34506  0.40753  1.0000
  C   C275      1.0  0.86816  0.38472  0.32522  1.0000
  C   C276      1.0  0.86696  0.37148  0.40662  1.0000
  H   H156      1.0  0.86743  0.38036  0.46651  1.0000
  H   H157      1.0  0.86101  0.33557  0.46750  1.0000
  H   H158      1.0  0.80624  0.30825  0.31120  1.0000
  H   H159      1.0  0.84629  0.22265  0.33736  1.0000
  H   H160      1.0  0.93532  0.26149  0.48065  1.0000
  H   H161      1.0  0.98336  0.27976  0.48164  1.0000
  H   H162      1.0  0.86305  0.16094  0.35737  1.0000
  H   H163      1.0  0.73177  0.15845  0.34796  1.0000
  H   H164      1.0  0.75716  0.13240  0.35123  1.0000
  H   H165      1.0  0.79523  0.13231  0.48979  1.0000
  H   H166      1.0  0.77677  0.08430  0.49239  1.0000
  H   H167      1.0  0.73952  0.22348  0.47318  1.0000
  H   H168      1.0  0.69473  0.21707  0.47361  1.0000
  C   C277      1.0  0.22112  0.58597  0.33977  1.0000
  C   C278      1.0  0.22182  0.63554  0.32525  1.0000
  N   N37       1.0  0.20865  0.61766  0.39262  1.0000
  C   C279      1.0  0.20735  0.59328  0.40341  1.0000
  C   C280      1.0  0.19068  0.57587  0.47850  1.0000
  O   O1        1.0  0.17044  0.54938  0.44951  1.0000
  H   H169      1.0  0.18077  0.58531  0.51436  1.0000
  H   H170      1.0  0.20378  0.57358  0.52642  1.0000
  H   H171      1.0  0.15727  0.55128  0.41203  1.0000
  C   C281      1.0  0.48269  0.63546  0.34013  1.0000
  C   C282      1.0  0.43315  0.58658  0.32560  1.0000
  N   N38       1.0  0.45097  0.59134  0.39314  1.0000
  C   C283      1.0  0.47533  0.61443  0.40397  1.0000
  C   C284      1.0  0.49269  0.61524  0.47926  1.0000
  O   O2        1.0  0.51918  0.62141  0.45047  1.0000
  H   H172      1.0  0.48320  0.59591  0.51535  1.0000
  H   H173      1.0  0.49498  0.63069  0.52692  1.0000
  H   H174      1.0  0.51728  0.60629  0.41323  1.0000
  C   C285      1.0  0.43326  0.84761  0.34005  1.0000
  C   C286      1.0  0.48214  0.84693  0.32572  1.0000
  N   N39       1.0  0.47733  0.85996  0.39328  1.0000
  C   C287      1.0  0.45425  0.86125  0.40399  1.0000
  C   C288      1.0  0.45339  0.87776  0.47935  1.0000
  O   O3        1.0  0.44720  0.89808  0.45064  1.0000
  H   H175      1.0  0.47269  0.88760  0.51546  1.0000
  H   H176      1.0  0.43792  0.86457  0.52697  1.0000
  H   H177      1.0  0.46233  0.91132  0.41345  1.0000
  C   C289      1.0  0.87023  0.45999  0.34047  1.0000
  C   C290      1.0  0.86957  0.41045  0.32597  1.0000
  N   N40       1.0  0.88266  0.42830  0.39343  1.0000
  C   C291      1.0  0.88394  0.45266  0.40422  1.0000
  C   C292      1.0  0.90055  0.47006  0.47937  1.0000
  O   O4        1.0  0.92082  0.49655  0.45041  1.0000
  H   H178      1.0  0.91043  0.46060  0.51529  1.0000
  H   H179      1.0  0.88741  0.47234  0.52721  1.0000
  H   H180      1.0  0.93401  0.49465  0.41300  1.0000
  C   C293      1.0  0.60865  0.41055  0.34083  1.0000
  C   C294      1.0  0.65821  0.45943  0.32631  1.0000
  N   N41       1.0  0.64031  0.45471  0.39363  1.0000
  C   C295      1.0  0.61594  0.43163  0.40442  1.0000
  C   C296      1.0  0.59850  0.43086  0.47947  1.0000
  O   O5        1.0  0.57202  0.42462  0.45041  1.0000
  H   H181      1.0  0.60793  0.45022  0.51530  1.0000
  H   H182      1.0  0.59620  0.41547  0.52741  1.0000
  H   H183      1.0  0.57393  0.43970  0.41289  1.0000
  C   C297      1.0  0.65816  0.19846  0.34063  1.0000
  C   C298      1.0  0.60929  0.19914  0.32628  1.0000
  N   N42       1.0  0.61406  0.18606  0.39378  1.0000
  C   C299      1.0  0.63714  0.18479  0.40452  1.0000
  C   C300      1.0  0.63796  0.16822  0.47979  1.0000
  O   O6        1.0  0.64413  0.14791  0.45096  1.0000
  H   H184      1.0  0.61864  0.15838  0.51593  1.0000
  H   H185      1.0  0.65342  0.18138  0.52742  1.0000
  H   H186      1.0  0.62900  0.13470  0.41375  1.0000
  C   C301      1.0  0.07447  0.32328  0.35709  1.0000
  C   C302      1.0  0.01758  0.29593  0.34244  1.0000
  N   N43       1.0  0.03050  0.29046  0.40875  1.0000
  C   C303      1.0  0.05790  0.30281  0.41955  1.0000
  C   C304      1.0  0.06821  0.29292  0.49307  1.0000
  O   O7        1.0  0.08693  0.28480  0.46224  1.0000
  H   H187      1.0  0.05148  0.27585  0.52801  1.0000
  H   H188      1.0  0.07852  0.30899  0.54216  1.0000
  H   H189      1.0  0.07701  0.26879  0.42356  1.0000
  C   C305      1.0  0.74537  0.75146  0.35768  1.0000
  C   C306      1.0  0.77273  0.72192  0.34304  1.0000
  N   N44       1.0  0.77822  0.74035  0.40923  1.0000
  C   C307      1.0  0.76587  0.75541  0.42003  1.0000
  C   C308      1.0  0.77582  0.77569  0.49331  1.0000
  O   O8        1.0  0.78393  0.80249  0.46223  1.0000
  H   H190      1.0  0.79292  0.77606  0.52813  1.0000
  H   H191      1.0  0.75979  0.76999  0.54258  1.0000
  H   H192      1.0  0.79991  0.80854  0.42337  1.0000
  C   C309      1.0  0.31717  0.99421  0.35725  1.0000
  C   C310      1.0  0.34671  0.05110  0.34274  1.0000
  N   N45       1.0  0.32829  0.03816  0.40899  1.0000
  C   C311      1.0  0.31322  0.01075  0.41970  1.0000
  C   C312      1.0  0.29296  0.00039  0.49312  1.0000
  O   O9        1.0  0.26616  0.98169  0.46217  1.0000
  H   H193      1.0  0.29259  0.01711  0.52804  1.0000
  H   H194      1.0  0.29869  0.99006  0.54226  1.0000
  H   H195      1.0  0.26009  0.99162  0.42345  1.0000
  C   C313      1.0  0.01691  0.72266  0.35719  1.0000
  C   C314      1.0  0.07380  0.75002  0.34234  1.0000
  N   N46       1.0  0.06088  0.75550  0.40863  1.0000
  C   C315      1.0  0.03348  0.74315  0.41955  1.0000
  C   C316      1.0  0.02316  0.75309  0.49295  1.0000
  O   O10       1.0  0.00447  0.76121  0.46201  1.0000
  H   H196      1.0  0.03989  0.77018  0.52777  1.0000
  H   H197      1.0  0.01283  0.73705  0.54217  1.0000
  H   H198      1.0  0.01440  0.77720  0.42321  1.0000
  C   C317      1.0  0.34595  0.29448  0.35753  1.0000
  C   C318      1.0  0.31858  0.32399  0.34269  1.0000
  N   N47       1.0  0.31312  0.30564  0.40910  1.0000
  C   C319      1.0  0.32547  0.29058  0.41999  1.0000
  C   C320      1.0  0.31559  0.27039  0.49359  1.0000
  O   O11       1.0  0.30748  0.24356  0.46289  1.0000
  H   H199      1.0  0.29851  0.27005  0.52849  1.0000
  H   H200      1.0  0.33166  0.27617  0.54270  1.0000
  H   H201      1.0  0.29148  0.23745  0.42420  1.0000
  C   C321      1.0  0.77416  0.05177  0.35745  1.0000
  C   C322      1.0  0.74462  0.99488  0.34278  1.0000
  N   N48       1.0  0.76305  0.00780  0.40894  1.0000
  C   C323      1.0  0.77811  0.03520  0.41976  1.0000
  C   C324      1.0  0.79840  0.04551  0.49301  1.0000
  O   O12       1.0  0.82520  0.06420  0.46189  1.0000
  H   H202      1.0  0.79876  0.02877  0.52780  1.0000
  H   H203      1.0  0.79270  0.05583  0.54230  1.0000
  H   H204      1.0  0.83124  0.05428  0.42300  1.0000
