data_image0
_chemical_formula_structural       C3NC3NC5NC5NC36H26N4C3HC2H2CH3CHC3HC2H2CH3CHC16H16C7H3CH3CHC7H3CH3CH
_chemical_formula_sum              "C100 N8 H70"
_cell_length_a       38.4951
_cell_length_b       38.4931
_cell_length_c       14.9091
_cell_angle_alpha    90
_cell_angle_beta     90
_cell_angle_gamma    90.0595

_space_group_name_H-M_alt    "P 1"
_space_group_IT_number       1

loop_
  _space_group_symop_operation_xyz
  'x, y, z'

loop_
  _atom_site_type_symbol
  _atom_site_label
  _atom_site_symmetry_multiplicity
  _atom_site_fract_x
  _atom_site_fract_y
  _atom_site_fract_z
  _atom_site_occupancy
  C   C1        1.0  0.93732  0.91133  0.31409  1.0000
  C   C2        1.0  0.91138  0.93606  0.31440  1.0000
  C   C3        1.0  0.92690  0.96889  0.31317  1.0000
  N   N1        1.0  0.96161  0.96278  0.31258  1.0000
  C   C4        1.0  0.96937  0.92840  0.31345  1.0000
  C   C5        1.0  0.00230  0.91159  0.31357  1.0000
  C   C6        1.0  0.03479  0.92912  0.31340  1.0000
  N   N2        1.0  0.04072  0.96375  0.31336  1.0000
  C   C7        1.0  0.07504  0.97130  0.31376  1.0000
  C   C8        1.0  0.09225  0.93938  0.31380  1.0000
  C   C9        1.0  0.06749  0.91342  0.31395  1.0000
  C   C10       1.0  0.09103  0.00458  0.31380  1.0000
  C   C11       1.0  0.07267  0.03667  0.31341  1.0000
  N   N3        1.0  0.03796  0.04279  0.31337  1.0000
  C   C12       1.0  0.03022  0.07718  0.31355  1.0000
  C   C13       1.0  0.06229  0.09423  0.31316  1.0000
  C   C14       1.0  0.08822  0.06949  0.31355  1.0000
  C   C15       1.0  0.99730  0.09402  0.31367  1.0000
  C   C16       1.0  0.96481  0.07647  0.31325  1.0000
  N   N4        1.0  0.95888  0.04183  0.31302  1.0000
  C   C17       1.0  0.92456  0.03427  0.31329  1.0000
  C   C18       1.0  0.90736  0.06621  0.31329  1.0000
  C   C19       1.0  0.93212  0.09216  0.31384  1.0000
  C   C20       1.0  0.90854  0.00099  0.31342  1.0000
  C   C21       1.0  0.87144  0.99986  0.31496  1.0000
  C   C22       1.0  0.79708  0.99930  0.31764  1.0000
  C   C23       1.0  0.81574  0.99324  0.23720  1.0000
  C   C24       1.0  0.85233  0.99370  0.23566  1.0000
  C   C25       1.0  0.75987  0.99974  0.31873  1.0000
  C   C26       1.0  0.74013  0.97411  0.27331  1.0000
  C   C27       1.0  0.70352  0.97457  0.27487  1.0000
  C   C28       1.0  0.68533  0.00104  0.32036  1.0000
  C   C29       1.0  0.99677  0.13114  0.31522  1.0000
  C   C30       1.0  0.99659  0.20550  0.31838  1.0000
  C   C31       1.0  0.99030  0.18694  0.23789  1.0000
  C   C32       1.0  0.99055  0.15035  0.23612  1.0000
  C   C33       1.0  0.99705  0.24271  0.31977  1.0000
  C   C34       1.0  0.99834  0.31725  0.32202  1.0000
  C   C35       1.0  0.97172  0.29906  0.27696  1.0000
  C   C36       1.0  0.97127  0.26245  0.27506  1.0000
  C   C37       1.0  0.12812  0.00575  0.31484  1.0000
  C   C38       1.0  0.14706  0.01097  0.23486  1.0000
  C   C39       1.0  0.18363  0.01201  0.23615  1.0000
  C   C40       1.0  0.20250  0.00767  0.31706  1.0000
  C   C41       1.0  0.23978  0.00836  0.31818  1.0000
  C   C42       1.0  0.31438  0.00970  0.32093  1.0000
  C   C43       1.0  0.29544  0.03328  0.26758  1.0000
  C   C44       1.0  0.25883  0.03275  0.26656  1.0000
  C   C45       1.0  0.00289  0.87449  0.31473  1.0000
  C   C46       1.0  0.00761  0.85545  0.23472  1.0000
  C   C47       1.0  0.00448  0.80009  0.31739  1.0000
  C   C48       1.0  0.00846  0.81887  0.23621  1.0000
  C   C49       1.0  0.00517  0.76282  0.31879  1.0000
  C   C50       1.0  0.02926  0.74375  0.26641  1.0000
  C   C51       1.0  0.02982  0.70715  0.26770  1.0000
  C   C52       1.0  0.00658  0.68822  0.32219  1.0000
  H   H1        1.0  0.04771  0.69434  0.22914  1.0000
  H   H2        1.0  0.04717  0.75640  0.22753  1.0000
  H   H3        1.0  0.01134  0.80603  0.17658  1.0000
  H   H4        1.0  0.01041  0.86811  0.17474  1.0000
  H   H5        1.0  0.93298  0.88512  0.31484  1.0000
  H   H6        1.0  0.88541  0.93048  0.31557  1.0000
  H   H7        1.0  0.97883  0.98083  0.31174  1.0000
  H   H8        1.0  0.02074  0.02475  0.31372  1.0000
  H   H9        1.0  0.07289  0.88742  0.31435  1.0000
  H   H10       1.0  0.11848  0.93520  0.31385  1.0000
  H   H11       1.0  0.13434  0.01391  0.17503  1.0000
  H   H12       1.0  0.19641  0.01519  0.17652  1.0000
  H   H13       1.0  0.11419  0.07506  0.31380  1.0000
  H   H14       1.0  0.06667  0.12043  0.31278  1.0000
  H   H15       1.0  0.88114  0.07040  0.31327  1.0000
  H   H16       1.0  0.92670  0.11815  0.31448  1.0000
  H   H17       1.0  0.98631  0.13780  0.17656  1.0000
  H   H18       1.0  0.98627  0.19995  0.17894  1.0000
  H   H19       1.0  0.95134  0.25029  0.24212  1.0000
  H   H20       1.0  0.95249  0.31242  0.24442  1.0000
  H   H21       1.0  0.86494  0.98976  0.17606  1.0000
  H   H22       1.0  0.80280  0.98939  0.17806  1.0000
  H   H23       1.0  0.69015  0.95545  0.24181  1.0000
  H   H24       1.0  0.75228  0.95430  0.24000  1.0000
  H   H25       1.0  0.24618  0.05089  0.22851  1.0000
  H   H26       1.0  0.30824  0.05138  0.22957  1.0000
  N   N5        1.0  0.65063  0.99993  0.32034  1.0000
  N   N6        1.0  0.00806  0.65356  0.31951  1.0000
  N   N7        1.0  0.34904  0.01117  0.31802  1.0000
  N   N8        1.0  0.99722  0.35195  0.32223  1.0000
  C   C53       1.0  0.01613  0.41037  0.32714  1.0000
  C   C54       1.0  0.03916  0.46920  0.30390  1.0000
  C   C55       1.0  0.04314  0.43295  0.29997  1.0000
  H   H27       1.0  0.06636  0.42319  0.27786  1.0000
  C   C56       1.0  0.99899  0.57965  0.27888  1.0000
  C   C57       1.0  0.00038  0.54312  0.26617  1.0000
  H   H28       1.0  0.99402  0.59537  0.22496  1.0000
  H   H29       1.0  0.05961  0.48460  0.28492  1.0000
  C   C58       1.0  0.99478  0.52838  0.17501  1.0000
  H   H30       1.0  0.97262  0.51067  0.17601  1.0000
  H   H31       1.0  0.01782  0.51411  0.15373  1.0000
  H   H32       1.0  0.98959  0.54835  0.12474  1.0000
  C   C59       1.0  0.02182  0.37459  0.32731  1.0000
  H   H33       1.0  0.04626  0.36621  0.32976  1.0000
  C   C60       1.0  0.59226  0.01888  0.32516  1.0000
  C   C61       1.0  0.53351  0.04198  0.30190  1.0000
  C   C62       1.0  0.56976  0.04591  0.29796  1.0000
  H   H34       1.0  0.57961  0.06914  0.27589  1.0000
  C   C63       1.0  0.42294  0.00190  0.27690  1.0000
  C   C64       1.0  0.45945  0.00326  0.26417  1.0000
  H   H35       1.0  0.40718  0.99692  0.22298  1.0000
  H   H36       1.0  0.51818  0.06244  0.28288  1.0000
  C   C65       1.0  0.47417  0.99767  0.17296  1.0000
  H   H37       1.0  0.49182  0.97551  0.17391  1.0000
  H   H38       1.0  0.48849  0.02071  0.15171  1.0000
  H   H39       1.0  0.45416  0.99251  0.12269  1.0000
  C   C66       1.0  0.62805  0.02454  0.32549  1.0000
  H   H40       1.0  0.63650  0.04898  0.32820  1.0000
  C   C67       1.0  0.85312  0.00550  0.39571  1.0000
  C   C68       1.0  0.81654  0.00536  0.39683  1.0000
  C   C69       1.0  0.70486  0.02655  0.36652  1.0000
  C   C70       1.0  0.74143  0.02590  0.36561  1.0000
  C   C71       1.0  0.00273  0.14937  0.39598  1.0000
  C   C72       1.0  0.00280  0.18594  0.39732  1.0000
  C   C73       1.0  0.02335  0.26114  0.36625  1.0000
  C   C74       1.0  0.02399  0.29771  0.36748  1.0000
  C   C75       1.0  0.18314  0.00244  0.39685  1.0000
  C   C76       1.0  0.14658  0.00158  0.39595  1.0000
  C   C77       1.0  0.25902  0.98442  0.37054  1.0000
  C   C78       1.0  0.29559  0.98498  0.37175  1.0000
  C   C79       1.0  0.99900  0.85612  0.39609  1.0000
  C   C80       1.0  0.99970  0.81955  0.39721  1.0000
  C   C81       1.0  0.98215  0.70701  0.37381  1.0000
  C   C82       1.0  0.98157  0.74359  0.37231  1.0000
  H   H41       1.0  0.96418  0.69419  0.41203  1.0000
  H   H42       1.0  0.96301  0.75605  0.40943  1.0000
  H   H43       1.0  0.99735  0.80725  0.45775  1.0000
  H   H44       1.0  0.99573  0.86929  0.45518  1.0000
  H   H45       1.0  0.13349  0.99787  0.45499  1.0000
  H   H46       1.0  0.19552  0.99981  0.45721  1.0000
  H   H47       1.0  0.00723  0.13611  0.45437  1.0000
  H   H48       1.0  0.00692  0.19821  0.45730  1.0000
  H   H49       1.0  0.04326  0.30995  0.40261  1.0000
  H   H50       1.0  0.04273  0.24805  0.39888  1.0000
  H   H51       1.0  0.75452  0.04519  0.39870  1.0000
  H   H52       1.0  0.69262  0.04571  0.40194  1.0000
  H   H53       1.0  0.80422  0.00934  0.45677  1.0000
  H   H54       1.0  0.86631  0.01000  0.45422  1.0000
  H   H55       1.0  0.24655  0.96566  0.40706  1.0000
  H   H56       1.0  0.30841  0.96677  0.40913  1.0000
  C   C83       1.0  0.98482  0.42550  0.35803  1.0000
  C   C84       1.0  0.98032  0.46205  0.36288  1.0000
  C   C85       1.0  0.00800  0.48423  0.33529  1.0000
  C   C86       1.0  0.00629  0.52122  0.34168  1.0000
  C   C87       1.0  0.01119  0.53652  0.42689  1.0000
  C   C88       1.0  0.00950  0.57271  0.43816  1.0000
  C   C89       1.0  0.00337  0.59498  0.36448  1.0000
  H   H57       1.0  0.01571  0.52132  0.48210  1.0000
  H   H58       1.0  0.01273  0.58267  0.50137  1.0000
  H   H59       1.0  0.96516  0.40957  0.37938  1.0000
  C   C90       1.0  0.94690  0.47646  0.39651  1.0000
  H   H60       1.0  0.92788  0.45626  0.41204  1.0000
  H   H61       1.0  0.93552  0.49348  0.34588  1.0000
  H   H62       1.0  0.95139  0.49139  0.45761  1.0000
  C   C91       1.0  0.00010  0.63059  0.37893  1.0000
  H   H63       1.0  0.99206  0.63855  0.43896  1.0000
  C   C92       1.0  0.57703  0.98757  0.35596  1.0000
  C   C93       1.0  0.54047  0.98311  0.36079  1.0000
  C   C94       1.0  0.51838  0.01082  0.33326  1.0000
  C   C95       1.0  0.48140  0.00916  0.33966  1.0000
  C   C96       1.0  0.46612  0.01404  0.42491  1.0000
  C   C97       1.0  0.42993  0.01234  0.43622  1.0000
  C   C98       1.0  0.40765  0.00624  0.36250  1.0000
  H   H64       1.0  0.48135  0.01852  0.48012  1.0000
  H   H65       1.0  0.42000  0.01553  0.49947  1.0000
  H   H66       1.0  0.59290  0.96789  0.37735  1.0000
  C   C99       1.0  0.52595  0.94969  0.39436  1.0000
  H   H67       1.0  0.54609  0.93065  0.40986  1.0000
  H   H68       1.0  0.50889  0.93835  0.34372  1.0000
  H   H69       1.0  0.51104  0.95419  0.45547  1.0000
  C   C100      1.0  0.37203  0.00291  0.37706  1.0000
  H   H70       1.0  0.36410  0.99462  0.43692  1.0000
