data_image0
_chemical_formula_structural       C2NOCHC2NOCHC2NOCHNC18H12NC18H12C4NOCHC4NOCHC4NOCHC2NOCHC2NOCHC2NOCHNC18H12NC18H12C4NOCHC4NOCHC4NOCHC2NOCHC2NOCHC2NOCHNC18H12NC18H12C4NOCHC4NOCHC4NOCHC2NOCHC2NOCHC2NOCHNC18H12NC18H12C4NOCHC4NOCHC4NOCH
_chemical_formula_sum              "C240 N32 O24 H120"
_cell_length_a       50.4228
_cell_length_b       50.4228
_cell_length_c       14.5409
_cell_angle_alpha    90
_cell_angle_beta     90
_cell_angle_gamma    120

_space_group_name_H-M_alt    "P 1"
_space_group_IT_number       1

loop_
  _space_group_symop_operation_xyz
  'x, y, z'

loop_
  _atom_site_type_symbol
  _atom_site_label
  _atom_site_symmetry_multiplicity
  _atom_site_fract_x
  _atom_site_fract_y
  _atom_site_fract_z
  _atom_site_occupancy
  C   C1        1.0  0.27722  0.28535  0.29308  1.0000
  C   C2        1.0  0.29286  0.26877  0.29354  1.0000
  N   N1        1.0  0.31010  0.27692  0.21793  1.0000
  O   O1        1.0  0.28498  0.30393  0.21788  1.0000
  C   C3        1.0  0.30474  0.29711  0.17398  1.0000
  H   H1        1.0  0.31533  0.30731  0.11373  1.0000
  C   C4        1.0  0.27162  0.50011  0.28427  1.0000
  C   C5        1.0  0.28779  0.03168  0.28846  1.0000
  N   N2        1.0  0.30078  0.04084  0.20607  1.0000
  O   O2        1.0  0.27384  0.48928  0.20041  1.0000
  C   C6        1.0  0.29086  0.51596  0.15310  1.0000
  H   H2        1.0  0.29764  0.51641  0.08668  1.0000
  C   C7        1.0  0.03987  0.26927  0.28482  1.0000
  C   C8        1.0  0.50761  0.25293  0.28552  1.0000
  N   N3        1.0  0.49877  0.24323  0.19980  1.0000
  O   O3        1.0  0.05082  0.27019  0.19846  1.0000
  C   C9        1.0  0.02440  0.25341  0.15029  1.0000
  H   H3        1.0  0.02421  0.24708  0.08361  1.0000
  N   N4        1.0  0.19103  0.34968  0.36456  1.0000
  C   C10       1.0  0.20782  0.33357  0.36542  1.0000
  C   C11       1.0  0.20776  0.38261  0.36288  1.0000
  C   C12       1.0  0.15799  0.33306  0.36483  1.0000
  C   C13       1.0  0.14079  0.30889  0.30254  1.0000
  C   C14       1.0  0.10846  0.29229  0.30455  1.0000
  C   C15       1.0  0.09113  0.29984  0.36518  1.0000
  C   C16       1.0  0.10869  0.32470  0.42589  1.0000
  C   C17       1.0  0.14108  0.34033  0.42732  1.0000
  C   C18       1.0  0.21850  0.32743  0.44797  1.0000
  C   C19       1.0  0.23505  0.31160  0.44770  1.0000
  C   C20       1.0  0.24090  0.30016  0.36544  1.0000
  C   C21       1.0  0.22968  0.30622  0.28314  1.0000
  C   C22       1.0  0.21414  0.32302  0.28286  1.0000
  C   C23       1.0  0.22593  0.39970  0.43843  1.0000
  C   C24       1.0  0.24199  0.43204  0.43802  1.0000
  C   C25       1.0  0.24036  0.44907  0.36272  1.0000
  C   C26       1.0  0.22185  0.43171  0.28744  1.0000
  C   C27       1.0  0.20602  0.39930  0.28731  1.0000
  H   H4        1.0  0.24319  0.30890  0.50926  1.0000
  H   H5        1.0  0.21440  0.33466  0.50924  1.0000
  H   H6        1.0  0.20685  0.32706  0.22157  1.0000
  H   H7        1.0  0.23217  0.29792  0.22161  1.0000
  H   H8        1.0  0.15173  0.30241  0.25639  1.0000
  H   H9        1.0  0.09777  0.27393  0.26143  1.0000
  H   H10       1.0  0.22758  0.38860  0.49500  1.0000
  H   H11       1.0  0.25543  0.44309  0.49363  1.0000
  H   H12       1.0  0.21908  0.44257  0.23200  1.0000
  H   H13       1.0  0.19277  0.38777  0.23185  1.0000
  H   H14       1.0  0.15244  0.35792  0.47293  1.0000
  H   H15       1.0  0.09811  0.33238  0.46941  1.0000
  N   N5        1.0  0.35622  0.18174  0.36630  1.0000
  C   C28       1.0  0.33953  0.19795  0.36517  1.0000
  C   C29       1.0  0.33931  0.14881  0.36762  1.0000
  C   C30       1.0  0.38927  0.19828  0.36608  1.0000
  C   C31       1.0  0.40648  0.22250  0.42820  1.0000
  C   C32       1.0  0.43882  0.23915  0.42599  1.0000
  C   C33       1.0  0.45614  0.23163  0.36523  1.0000
  C   C34       1.0  0.43856  0.20675  0.30460  1.0000
  C   C35       1.0  0.40616  0.19106  0.30341  1.0000
  C   C36       1.0  0.32890  0.20409  0.28254  1.0000
  C   C37       1.0  0.31236  0.21994  0.28268  1.0000
  C   C38       1.0  0.30649  0.23139  0.36488  1.0000
  C   C39       1.0  0.31768  0.22533  0.44725  1.0000
  C   C40       1.0  0.33320  0.20851  0.44766  1.0000
  C   C41       1.0  0.32157  0.13194  0.29115  1.0000
  C   C42       1.0  0.30513  0.09960  0.29129  1.0000
  C   C43       1.0  0.30584  0.08240  0.36749  1.0000
  C   C44       1.0  0.32386  0.09951  0.44382  1.0000
  C   C45       1.0  0.34019  0.13193  0.44397  1.0000
  H   H16       1.0  0.30426  0.22265  0.22106  1.0000
  H   H17       1.0  0.33301  0.19685  0.22132  1.0000
  H   H18       1.0  0.34044  0.20445  0.50901  1.0000
  H   H19       1.0  0.31517  0.23364  0.50875  1.0000
  H   H20       1.0  0.39556  0.22896  0.47446  1.0000
  H   H21       1.0  0.44951  0.25753  0.46903  1.0000
  H   H22       1.0  0.32055  0.14319  0.23402  1.0000
  H   H23       1.0  0.29212  0.08868  0.23485  1.0000
  H   H24       1.0  0.32583  0.08842  0.50004  1.0000
  H   H25       1.0  0.35304  0.14331  0.50021  1.0000
  H   H26       1.0  0.39479  0.17346  0.25784  1.0000
  H   H27       1.0  0.44914  0.19911  0.26094  1.0000
  C   C46       1.0  0.29016  0.24832  0.36496  1.0000
  C   C47       1.0  0.27014  0.24616  0.43711  1.0000
  C   C48       1.0  0.25453  0.26277  0.43672  1.0000
  C   C49       1.0  0.25722  0.28321  0.36528  1.0000
  N   N6        1.0  0.23730  0.25462  0.51233  1.0000
  O   O4        1.0  0.26234  0.22754  0.51223  1.0000
  C   C50       1.0  0.24277  0.23454  0.55650  1.0000
  H   H28       1.0  0.23183  0.22400  0.61602  1.0000
  C   C51       1.0  0.28924  0.04926  0.36665  1.0000
  C   C52       1.0  0.27267  0.03145  0.44392  1.0000
  C   C53       1.0  0.25940  0.49988  0.44265  1.0000
  C   C54       1.0  0.25669  0.48226  0.36325  1.0000
  N   N7        1.0  0.24739  0.49073  0.52618  1.0000
  O   O5        1.0  0.26861  0.04231  0.52541  1.0000
  C   C55       1.0  0.25020  0.01560  0.57115  1.0000
  H   H29       1.0  0.24203  0.01516  0.63560  1.0000
  C   C56       1.0  0.48955  0.24844  0.36533  1.0000
  C   C57       1.0  0.50740  0.26228  0.44544  1.0000
  C   C58       1.0  0.03966  0.27862  0.44474  1.0000
  C   C59       1.0  0.05772  0.28307  0.36496  1.0000
  N   N8        1.0  0.04851  0.28829  0.53049  1.0000
  O   O6        1.0  0.49645  0.26123  0.53188  1.0000
  C   C60       1.0  0.52286  0.27829  0.57980  1.0000
  H   H30       1.0  0.52306  0.28407  0.64708  1.0000
  C   C61       1.0  0.25901  0.76754  0.28627  1.0000
  C   C62       1.0  0.27499  0.75130  0.28645  1.0000
  N   N9        1.0  0.27150  0.73901  0.20310  1.0000
  O   O7        1.0  0.24546  0.76524  0.20322  1.0000
  C   C63       1.0  0.25443  0.74775  0.15533  1.0000
  H   H31       1.0  0.24802  0.74123  0.08878  1.0000
  C   C64       1.0  0.27173  0.99948  0.28697  1.0000
  C   C65       1.0  0.28769  0.53231  0.28575  1.0000
  N   N10       1.0  0.29971  0.54152  0.20229  1.0000
  O   O8        1.0  0.27488  0.98859  0.20434  1.0000
  C   C66       1.0  0.29247  0.01526  0.15753  1.0000
  H   H32       1.0  0.29974  0.01568  0.09173  1.0000
  C   C67       1.0  0.03995  0.76905  0.28496  1.0000
  C   C68       1.0  0.50769  0.75302  0.28545  1.0000
  N   N11       1.0  0.49887  0.74338  0.19966  1.0000
  O   O9        1.0  0.05095  0.76980  0.19878  1.0000
  C   C69       1.0  0.02452  0.75327  0.15042  1.0000
  H   H33       1.0  0.02431  0.74704  0.08360  1.0000
  N   N12       1.0  0.19096  0.84939  0.36574  1.0000
  C   C70       1.0  0.20774  0.83326  0.36702  1.0000
  C   C71       1.0  0.20747  0.88229  0.36413  1.0000
  C   C72       1.0  0.15796  0.83283  0.36572  1.0000
  C   C73       1.0  0.14103  0.80848  0.30384  1.0000
  C   C74       1.0  0.10866  0.79184  0.30541  1.0000
  C   C75       1.0  0.09120  0.79950  0.36533  1.0000
  C   C76       1.0  0.10861  0.82454  0.42553  1.0000
  C   C77       1.0  0.14098  0.84023  0.42741  1.0000
  C   C78       1.0  0.20597  0.81468  0.44215  1.0000
  C   C79       1.0  0.22194  0.79826  0.44163  1.0000
  C   C80       1.0  0.24050  0.79965  0.36621  1.0000
  C   C81       1.0  0.24216  0.81849  0.29131  1.0000
  C   C82       1.0  0.22610  0.83480  0.29151  1.0000
  C   C83       1.0  0.22558  0.89931  0.43979  1.0000
  C   C84       1.0  0.24121  0.93167  0.43985  1.0000
  C   C85       1.0  0.23942  0.94858  0.36445  1.0000
  C   C86       1.0  0.22117  0.93126  0.28880  1.0000
  C   C87       1.0  0.20555  0.89888  0.28860  1.0000
  H   H34       1.0  0.21921  0.78452  0.49676  1.0000
  H   H35       1.0  0.19265  0.81277  0.49761  1.0000
  H   H36       1.0  0.22788  0.84797  0.23578  1.0000
  H   H37       1.0  0.25565  0.82098  0.23571  1.0000
  H   H38       1.0  0.15234  0.80202  0.25879  1.0000
  H   H39       1.0  0.09802  0.77339  0.26259  1.0000
  H   H40       1.0  0.22742  0.88806  0.49581  1.0000
  H   H41       1.0  0.25449  0.94287  0.49567  1.0000
  H   H42       1.0  0.21848  0.94214  0.23325  1.0000
  H   H43       1.0  0.19239  0.88730  0.23301  1.0000
  H   H44       1.0  0.15225  0.85795  0.47266  1.0000
  H   H45       1.0  0.09794  0.83231  0.46835  1.0000
  N   N13       1.0  0.35642  0.68233  0.36496  1.0000
  C   C88       1.0  0.33973  0.69855  0.36370  1.0000
  C   C89       1.0  0.33971  0.64943  0.36628  1.0000
  C   C90       1.0  0.38942  0.69882  0.36480  1.0000
  C   C91       1.0  0.40640  0.72320  0.42653  1.0000
  C   C92       1.0  0.43877  0.73981  0.42488  1.0000
  C   C93       1.0  0.45619  0.73212  0.36491  1.0000
  C   C94       1.0  0.43874  0.70707  0.30477  1.0000
  C   C95       1.0  0.40636  0.69138  0.30304  1.0000
  C   C96       1.0  0.34146  0.71706  0.28843  1.0000
  C   C97       1.0  0.32545  0.73344  0.28876  1.0000
  C   C98       1.0  0.30685  0.73202  0.36409  1.0000
  C   C99       1.0  0.30520  0.71323  0.43910  1.0000
  C   C100      1.0  0.32133  0.69699  0.43911  1.0000
  C   C101      1.0  0.32092  0.63260  0.29147  1.0000
  C   C102      1.0  0.30477  0.60023  0.29144  1.0000
  C   C103      1.0  0.30680  0.58307  0.36572  1.0000
  C   C104      1.0  0.32582  0.60023  0.44040  1.0000
  C   C105      1.0  0.34183  0.63262  0.44086  1.0000
  H   H46       1.0  0.32813  0.74711  0.23351  1.0000
  H   H47       1.0  0.35478  0.71894  0.23297  1.0000
  H   H48       1.0  0.31953  0.68382  0.49486  1.0000
  H   H49       1.0  0.29168  0.71071  0.49462  1.0000
  H   H50       1.0  0.39513  0.72967  0.47170  1.0000
  H   H51       1.0  0.44945  0.75827  0.46764  1.0000
  H   H52       1.0  0.31883  0.64398  0.23623  1.0000
  H   H53       1.0  0.29092  0.58925  0.23646  1.0000
  H   H54       1.0  0.32880  0.58922  0.49506  1.0000
  H   H55       1.0  0.35544  0.64404  0.49581  1.0000
  H   H56       1.0  0.39506  0.67364  0.25790  1.0000
  H   H57       1.0  0.44938  0.69928  0.26190  1.0000
  C   C106      1.0  0.29048  0.74882  0.36464  1.0000
  C   C107      1.0  0.28833  0.76412  0.44390  1.0000
  C   C108      1.0  0.27232  0.78032  0.44375  1.0000
  C   C109      1.0  0.25684  0.78282  0.36555  1.0000
  N   N14       1.0  0.27581  0.79260  0.52710  1.0000
  O   O10       1.0  0.30190  0.76644  0.52690  1.0000
  C   C110      1.0  0.29278  0.78377  0.57499  1.0000
  H   H58       1.0  0.29946  0.79056  0.64121  1.0000
  C   C111      1.0  0.29037  0.54991  0.36511  1.0000
  C   C112      1.0  0.27547  0.53208  0.44413  1.0000
  C   C113      1.0  0.25658  0.99925  0.44238  1.0000
  C   C114      1.0  0.25557  0.98169  0.36472  1.0000
  N   N15       1.0  0.24253  0.99001  0.52331  1.0000
  O   O11       1.0  0.27338  0.54296  0.52804  1.0000
  C   C115      1.0  0.25632  0.51630  0.57537  1.0000
  H   H59       1.0  0.24958  0.51587  0.64184  1.0000
  C   C116      1.0  0.48960  0.74879  0.36508  1.0000
  C   C117      1.0  0.50744  0.76257  0.44521  1.0000
  C   C118      1.0  0.03971  0.77860  0.44472  1.0000
  C   C119      1.0  0.05779  0.78281  0.36511  1.0000
  N   N16       1.0  0.04853  0.78821  0.53054  1.0000
  O   O12       1.0  0.49645  0.76169  0.53146  1.0000
  C   C120      1.0  0.52287  0.77848  0.57962  1.0000
  H   H60       1.0  0.52307  0.78420  0.64696  1.0000
  C   C121      1.0  0.77723  0.28535  0.29308  1.0000
  C   C122      1.0  0.79287  0.26877  0.29354  1.0000
  N   N17       1.0  0.81010  0.27692  0.21793  1.0000
  O   O13       1.0  0.78498  0.30393  0.21788  1.0000
  C   C123      1.0  0.80473  0.29711  0.17398  1.0000
  H   H61       1.0  0.81533  0.30731  0.11373  1.0000
  C   C124      1.0  0.77162  0.50011  0.28427  1.0000
  C   C125      1.0  0.78779  0.03168  0.28846  1.0000
  N   N18       1.0  0.80078  0.04084  0.20607  1.0000
  O   O14       1.0  0.77384  0.48928  0.20041  1.0000
  C   C126      1.0  0.79086  0.51596  0.15310  1.0000
  H   H62       1.0  0.79764  0.51641  0.08668  1.0000
  C   C127      1.0  0.53987  0.26927  0.28482  1.0000
  C   C128      1.0  0.00761  0.25293  0.28552  1.0000
  N   N19       1.0  0.99877  0.24323  0.19980  1.0000
  O   O15       1.0  0.55082  0.27019  0.19846  1.0000
  C   C129      1.0  0.52440  0.25341  0.15029  1.0000
  H   H63       1.0  0.52421  0.24708  0.08361  1.0000
  N   N20       1.0  0.69103  0.34968  0.36456  1.0000
  C   C130      1.0  0.70781  0.33357  0.36542  1.0000
  C   C131      1.0  0.70776  0.38261  0.36288  1.0000
  C   C132      1.0  0.65799  0.33306  0.36483  1.0000
  C   C133      1.0  0.64079  0.30889  0.30254  1.0000
  C   C134      1.0  0.60846  0.29229  0.30455  1.0000
  C   C135      1.0  0.59112  0.29984  0.36518  1.0000
  C   C136      1.0  0.60869  0.32470  0.42589  1.0000
  C   C137      1.0  0.64109  0.34033  0.42732  1.0000
  C   C138      1.0  0.71850  0.32743  0.44797  1.0000
  C   C139      1.0  0.73505  0.31160  0.44770  1.0000
  C   C140      1.0  0.74090  0.30016  0.36544  1.0000
  C   C141      1.0  0.72968  0.30622  0.28314  1.0000
  C   C142      1.0  0.71413  0.32302  0.28286  1.0000
  C   C143      1.0  0.72593  0.39970  0.43843  1.0000
  C   C144      1.0  0.74199  0.43204  0.43802  1.0000
  C   C145      1.0  0.74036  0.44907  0.36272  1.0000
  C   C146      1.0  0.72185  0.43171  0.28744  1.0000
  C   C147      1.0  0.70602  0.39930  0.28731  1.0000
  H   H64       1.0  0.74319  0.30890  0.50926  1.0000
  H   H65       1.0  0.71440  0.33466  0.50924  1.0000
  H   H66       1.0  0.70685  0.32706  0.22157  1.0000
  H   H67       1.0  0.73217  0.29792  0.22161  1.0000
  H   H68       1.0  0.65173  0.30241  0.25639  1.0000
  H   H69       1.0  0.59777  0.27393  0.26143  1.0000
  H   H70       1.0  0.72758  0.38860  0.49500  1.0000
  H   H71       1.0  0.75543  0.44309  0.49363  1.0000
  H   H72       1.0  0.71908  0.44257  0.23200  1.0000
  H   H73       1.0  0.69277  0.38777  0.23185  1.0000
  H   H74       1.0  0.65245  0.35792  0.47293  1.0000
  H   H75       1.0  0.59811  0.33238  0.46941  1.0000
  N   N21       1.0  0.85622  0.18174  0.36630  1.0000
  C   C148      1.0  0.83953  0.19795  0.36517  1.0000
  C   C149      1.0  0.83931  0.14881  0.36762  1.0000
  C   C150      1.0  0.88927  0.19828  0.36608  1.0000
  C   C151      1.0  0.90649  0.22250  0.42820  1.0000
  C   C152      1.0  0.93882  0.23915  0.42599  1.0000
  C   C153      1.0  0.95614  0.23163  0.36523  1.0000
  C   C154      1.0  0.93856  0.20675  0.30460  1.0000
  C   C155      1.0  0.90616  0.19106  0.30341  1.0000
  C   C156      1.0  0.82889  0.20409  0.28254  1.0000
  C   C157      1.0  0.81236  0.21994  0.28268  1.0000
  C   C158      1.0  0.80649  0.23139  0.36488  1.0000
  C   C159      1.0  0.81768  0.22533  0.44725  1.0000
  C   C160      1.0  0.83320  0.20851  0.44766  1.0000
  C   C161      1.0  0.82157  0.13194  0.29115  1.0000
  C   C162      1.0  0.80513  0.09960  0.29129  1.0000
  C   C163      1.0  0.80583  0.08240  0.36749  1.0000
  C   C164      1.0  0.82386  0.09951  0.44382  1.0000
  C   C165      1.0  0.84019  0.13193  0.44397  1.0000
  H   H76       1.0  0.80426  0.22265  0.22106  1.0000
  H   H77       1.0  0.83301  0.19685  0.22132  1.0000
  H   H78       1.0  0.84044  0.20445  0.50901  1.0000
  H   H79       1.0  0.81517  0.23364  0.50875  1.0000
  H   H80       1.0  0.89556  0.22896  0.47446  1.0000
  H   H81       1.0  0.94951  0.25753  0.46903  1.0000
  H   H82       1.0  0.82055  0.14319  0.23402  1.0000
  H   H83       1.0  0.79212  0.08868  0.23485  1.0000
  H   H84       1.0  0.82583  0.08842  0.50004  1.0000
  H   H85       1.0  0.85305  0.14331  0.50021  1.0000
  H   H86       1.0  0.89479  0.17346  0.25784  1.0000
  H   H87       1.0  0.94914  0.19911  0.26094  1.0000
  C   C166      1.0  0.79017  0.24832  0.36496  1.0000
  C   C167      1.0  0.77014  0.24616  0.43711  1.0000
  C   C168      1.0  0.75453  0.26277  0.43672  1.0000
  C   C169      1.0  0.75722  0.28321  0.36528  1.0000
  N   N22       1.0  0.73730  0.25462  0.51233  1.0000
  O   O16       1.0  0.76234  0.22754  0.51223  1.0000
  C   C170      1.0  0.74277  0.23454  0.55650  1.0000
  H   H88       1.0  0.73183  0.22400  0.61602  1.0000
  C   C171      1.0  0.78924  0.04926  0.36665  1.0000
  C   C172      1.0  0.77267  0.03145  0.44392  1.0000
  C   C173      1.0  0.75940  0.49988  0.44265  1.0000
  C   C174      1.0  0.75669  0.48226  0.36325  1.0000
  N   N23       1.0  0.74739  0.49073  0.52618  1.0000
  O   O17       1.0  0.76861  0.04231  0.52541  1.0000
  C   C175      1.0  0.75020  0.01560  0.57115  1.0000
  H   H89       1.0  0.74203  0.01516  0.63560  1.0000
  C   C176      1.0  0.98955  0.24844  0.36533  1.0000
  C   C177      1.0  0.00740  0.26228  0.44544  1.0000
  C   C178      1.0  0.53966  0.27862  0.44474  1.0000
  C   C179      1.0  0.55772  0.28307  0.36496  1.0000
  N   N24       1.0  0.54851  0.28829  0.53049  1.0000
  O   O18       1.0  0.99645  0.26123  0.53188  1.0000
  C   C180      1.0  0.02286  0.27829  0.57980  1.0000
  H   H90       1.0  0.02306  0.28407  0.64708  1.0000
  C   C181      1.0  0.75901  0.76754  0.28627  1.0000
  C   C182      1.0  0.77499  0.75130  0.28645  1.0000
  N   N25       1.0  0.77150  0.73901  0.20310  1.0000
  O   O19       1.0  0.74546  0.76524  0.20322  1.0000
  C   C183      1.0  0.75443  0.74775  0.15533  1.0000
  H   H91       1.0  0.74802  0.74123  0.08878  1.0000
  C   C184      1.0  0.77173  0.99948  0.28697  1.0000
  C   C185      1.0  0.78769  0.53231  0.28575  1.0000
  N   N26       1.0  0.79972  0.54152  0.20229  1.0000
  O   O20       1.0  0.77488  0.98859  0.20434  1.0000
  C   C186      1.0  0.79247  0.01526  0.15753  1.0000
  H   H92       1.0  0.79974  0.01568  0.09173  1.0000
  C   C187      1.0  0.53995  0.76905  0.28496  1.0000
  C   C188      1.0  0.00769  0.75302  0.28545  1.0000
  N   N27       1.0  0.99887  0.74338  0.19966  1.0000
  O   O21       1.0  0.55095  0.76980  0.19878  1.0000
  C   C189      1.0  0.52452  0.75327  0.15042  1.0000
  H   H93       1.0  0.52431  0.74704  0.08360  1.0000
  N   N28       1.0  0.69096  0.84939  0.36574  1.0000
  C   C190      1.0  0.70774  0.83326  0.36702  1.0000
  C   C191      1.0  0.70747  0.88229  0.36413  1.0000
  C   C192      1.0  0.65796  0.83283  0.36572  1.0000
  C   C193      1.0  0.64103  0.80848  0.30384  1.0000
  C   C194      1.0  0.60866  0.79184  0.30541  1.0000
  C   C195      1.0  0.59120  0.79950  0.36533  1.0000
  C   C196      1.0  0.60861  0.82454  0.42553  1.0000
  C   C197      1.0  0.64098  0.84023  0.42741  1.0000
  C   C198      1.0  0.70597  0.81468  0.44215  1.0000
  C   C199      1.0  0.72194  0.79826  0.44163  1.0000
  C   C200      1.0  0.74050  0.79965  0.36621  1.0000
  C   C201      1.0  0.74216  0.81849  0.29131  1.0000
  C   C202      1.0  0.72610  0.83480  0.29151  1.0000
  C   C203      1.0  0.72558  0.89931  0.43979  1.0000
  C   C204      1.0  0.74121  0.93167  0.43985  1.0000
  C   C205      1.0  0.73942  0.94858  0.36445  1.0000
  C   C206      1.0  0.72117  0.93126  0.28880  1.0000
  C   C207      1.0  0.70555  0.89888  0.28860  1.0000
  H   H94       1.0  0.71920  0.78452  0.49676  1.0000
  H   H95       1.0  0.69265  0.81277  0.49761  1.0000
  H   H96       1.0  0.72788  0.84797  0.23578  1.0000
  H   H97       1.0  0.75564  0.82098  0.23571  1.0000
  H   H98       1.0  0.65234  0.80202  0.25879  1.0000
  H   H99       1.0  0.59802  0.77339  0.26259  1.0000
  H   H100      1.0  0.72742  0.88806  0.49581  1.0000
  H   H101      1.0  0.75448  0.94287  0.49567  1.0000
  H   H102      1.0  0.71848  0.94214  0.23325  1.0000
  H   H103      1.0  0.69239  0.88730  0.23301  1.0000
  H   H104      1.0  0.65225  0.85795  0.47266  1.0000
  H   H105      1.0  0.59794  0.83231  0.46835  1.0000
  N   N29       1.0  0.85642  0.68233  0.36496  1.0000
  C   C208      1.0  0.83973  0.69855  0.36370  1.0000
  C   C209      1.0  0.83971  0.64943  0.36628  1.0000
  C   C210      1.0  0.88942  0.69882  0.36480  1.0000
  C   C211      1.0  0.90640  0.72320  0.42653  1.0000
  C   C212      1.0  0.93877  0.73981  0.42488  1.0000
  C   C213      1.0  0.95620  0.73212  0.36491  1.0000
  C   C214      1.0  0.93873  0.70707  0.30477  1.0000
  C   C215      1.0  0.90636  0.69138  0.30304  1.0000
  C   C216      1.0  0.84146  0.71706  0.28843  1.0000
  C   C217      1.0  0.82545  0.73344  0.28876  1.0000
  C   C218      1.0  0.80685  0.73202  0.36409  1.0000
  C   C219      1.0  0.80520  0.71323  0.43910  1.0000
  C   C220      1.0  0.82133  0.69699  0.43911  1.0000
  C   C221      1.0  0.82092  0.63260  0.29147  1.0000
  C   C222      1.0  0.80476  0.60023  0.29144  1.0000
  C   C223      1.0  0.80680  0.58307  0.36572  1.0000
  C   C224      1.0  0.82582  0.60023  0.44040  1.0000
  C   C225      1.0  0.84183  0.63262  0.44086  1.0000
  H   H106      1.0  0.82813  0.74711  0.23351  1.0000
  H   H107      1.0  0.85477  0.71894  0.23297  1.0000
  H   H108      1.0  0.81953  0.68382  0.49486  1.0000
  H   H109      1.0  0.79168  0.71071  0.49462  1.0000
  H   H110      1.0  0.89513  0.72967  0.47170  1.0000
  H   H111      1.0  0.94945  0.75827  0.46764  1.0000
  H   H112      1.0  0.81883  0.64398  0.23623  1.0000
  H   H113      1.0  0.79092  0.58925  0.23646  1.0000
  H   H114      1.0  0.82880  0.58922  0.49506  1.0000
  H   H115      1.0  0.85545  0.64404  0.49581  1.0000
  H   H116      1.0  0.89506  0.67364  0.25790  1.0000
  H   H117      1.0  0.94938  0.69928  0.26190  1.0000
  C   C226      1.0  0.79048  0.74882  0.36464  1.0000
  C   C227      1.0  0.78833  0.76412  0.44390  1.0000
  C   C228      1.0  0.77232  0.78032  0.44375  1.0000
  C   C229      1.0  0.75684  0.78282  0.36555  1.0000
  N   N30       1.0  0.77581  0.79260  0.52710  1.0000
  O   O22       1.0  0.80190  0.76644  0.52690  1.0000
  C   C230      1.0  0.79278  0.78377  0.57499  1.0000
  H   H118      1.0  0.79946  0.79056  0.64121  1.0000
  C   C231      1.0  0.79036  0.54991  0.36511  1.0000
  C   C232      1.0  0.77547  0.53208  0.44413  1.0000
  C   C233      1.0  0.75659  0.99925  0.44238  1.0000
  C   C234      1.0  0.75557  0.98169  0.36472  1.0000
  N   N31       1.0  0.74253  0.99001  0.52331  1.0000
  O   O23       1.0  0.77338  0.54296  0.52804  1.0000
  C   C235      1.0  0.75632  0.51630  0.57537  1.0000
  H   H119      1.0  0.74958  0.51587  0.64184  1.0000
  C   C236      1.0  0.98960  0.74879  0.36508  1.0000
  C   C237      1.0  0.00744  0.76257  0.44521  1.0000
  C   C238      1.0  0.53971  0.77860  0.44472  1.0000
  C   C239      1.0  0.55779  0.78281  0.36511  1.0000
  N   N32       1.0  0.54853  0.78821  0.53054  1.0000
  O   O24       1.0  0.99644  0.76169  0.53146  1.0000
  C   C240      1.0  0.02287  0.77848  0.57962  1.0000
  H   H120      1.0  0.02307  0.78420  0.64696  1.0000
