data_image0
_chemical_formula_structural       CNC2NC4NC18H14C2NC16H12C3NC2NC5NC4NC18H14CNC16H12C11H11CNCNC4NC16H13CNCHNHCNCHNHCNCHNHCNCHNHCNCHNHCNCHNHCNCHNHCNCHNHCNCHNHCNCHNHCNCHNHCNCHNHC7NC12H12C2NC3NC3NC18H14C12H12C3NC3NC3NC18H14C3NC3NC2NC5NC20H15C8NC14H13C4HC6H3C4HC6H3C4HC6H3C4HC6H3C4HC6H3C4HC6H3C4HC6H3C4HC6H3C4HC6H3C4HC6H3C4HC6H3C4HC6H3
_chemical_formula_sum              "C408 N48 H228"
_cell_length_a       68.5144
_cell_length_b       68.5143
_cell_length_c       15.0157
_cell_angle_alpha    90.0014
_cell_angle_beta     89.9712
_cell_angle_gamma    120

_space_group_name_H-M_alt    "P 1"
_space_group_IT_number       1

loop_
  _space_group_symop_operation_xyz
  'x, y, z'

loop_
  _atom_site_type_symbol
  _atom_site_label
  _atom_site_symmetry_multiplicity
  _atom_site_fract_x
  _atom_site_fract_y
  _atom_site_fract_z
  _atom_site_occupancy
  C   C1        1.0  0.27335  0.51145  0.32686  1.0000
  N   N1        1.0  0.26582  0.47643  0.32597  1.0000
  C   C2        1.0  0.28866  0.48903  0.32683  1.0000
  C   C3        1.0  0.30518  0.48218  0.32686  1.0000
  N   N2        1.0  0.27958  0.44051  0.32632  1.0000
  C   C4        1.0  0.28107  0.42156  0.32690  1.0000
  C   C5        1.0  0.30409  0.42879  0.32906  1.0000
  C   C6        1.0  0.31578  0.45201  0.32708  1.0000
  C   C7        1.0  0.26322  0.39878  0.32611  1.0000
  N   N3        1.0  0.22979  0.40472  0.32600  1.0000
  C   C8        1.0  0.20697  0.39211  0.32696  1.0000
  C   C9        1.0  0.22223  0.36967  0.32518  1.0000
  C   C10       1.0  0.21452  0.45964  0.32654  1.0000
  C   C11       1.0  0.23235  0.48240  0.32732  1.0000
  C   C12       1.0  0.22639  0.49964  0.33125  1.0000
  C   C13       1.0  0.21603  0.50387  0.25835  1.0000
  C   C14       1.0  0.21056  0.52110  0.26254  1.0000
  C   C15       1.0  0.21605  0.53543  0.33790  1.0000
  C   C16       1.0  0.15655  0.36749  0.25913  1.0000
  C   C17       1.0  0.13355  0.35108  0.26347  1.0000
  C   C18       1.0  0.26923  0.38158  0.32618  1.0000
  C   C19       1.0  0.28369  0.34880  0.33019  1.0000
  C   C20       1.0  0.28781  0.36303  0.25531  1.0000
  C   C21       1.0  0.28027  0.37869  0.25228  1.0000
  C   C22       1.0  0.32843  0.49935  0.32722  1.0000
  C   C23       1.0  0.33810  0.51372  0.25317  1.0000
  C   C24       1.0  0.36049  0.53161  0.25610  1.0000
  C   C25       1.0  0.37457  0.53529  0.33107  1.0000
  H   H1        1.0  0.36602  0.54237  0.20303  1.0000
  H   H2        1.0  0.32856  0.51190  0.19800  1.0000
  H   H3        1.0  0.27226  0.52578  0.32656  1.0000
  H   H4        1.0  0.25770  0.46026  0.32517  1.0000
  H   H5        1.0  0.23792  0.42090  0.32622  1.0000
  H   H6        1.0  0.33295  0.46162  0.32705  1.0000
  H   H7        1.0  0.31156  0.41910  0.33103  1.0000
  H   H8        1.0  0.28386  0.38876  0.19727  1.0000
  H   H9        1.0  0.29710  0.36284  0.20246  1.0000
  H   H10       1.0  0.22334  0.35534  0.32411  1.0000
  H   H11       1.0  0.16543  0.36872  0.20252  1.0000
  H   H12       1.0  0.12674  0.34064  0.20985  1.0000
  H   H13       1.0  0.20254  0.52305  0.20881  1.0000
  H   H14       1.0  0.21227  0.49432  0.20176  1.0000
  C   C26       1.0  0.54328  0.76165  0.32709  1.0000
  C   C27       1.0  0.56569  0.79938  0.32726  1.0000
  N   N4        1.0  0.61422  0.83883  0.32687  1.0000
  C   C28       1.0  0.63317  0.85927  0.32745  1.0000
  C   C29       1.0  0.62593  0.87505  0.32965  1.0000
  C   C30       1.0  0.60272  0.86353  0.32776  1.0000
  C   C31       1.0  0.65595  0.86419  0.32657  1.0000
  C   C32       1.0  0.66263  0.81463  0.32728  1.0000
  C   C33       1.0  0.68506  0.85232  0.32545  1.0000
  C   C34       1.0  0.59510  0.75464  0.32704  1.0000
  C   C35       1.0  0.55088  0.71192  0.25876  1.0000
  C   C36       1.0  0.53365  0.68921  0.26294  1.0000
  C   C37       1.0  0.68726  0.78882  0.25951  1.0000
  C   C38       1.0  0.70367  0.78223  0.26386  1.0000
  C   C39       1.0  0.67314  0.88741  0.32662  1.0000
  C   C40       1.0  0.69172  0.92453  0.25565  1.0000
  C   C41       1.0  0.67605  0.90132  0.25267  1.0000
  C   C42       1.0  0.54103  0.82413  0.25369  1.0000
  C   C43       1.0  0.52315  0.82866  0.25654  1.0000
  H   H15       1.0  0.51242  0.82344  0.20341  1.0000
  H   H16       1.0  0.54289  0.81644  0.19848  1.0000
  H   H17       1.0  0.52895  0.74622  0.32696  1.0000
  H   H18       1.0  0.59311  0.87109  0.32767  1.0000
  H   H19       1.0  0.63562  0.89221  0.33158  1.0000
  H   H20       1.0  0.66597  0.89484  0.19772  1.0000
  H   H21       1.0  0.69189  0.93401  0.20285  1.0000
  H   H22       1.0  0.69939  0.86775  0.32469  1.0000
  H   H23       1.0  0.68604  0.79646  0.20289  1.0000
  H   H24       1.0  0.71411  0.78583  0.21022  1.0000
  H   H25       1.0  0.53171  0.67925  0.20922  1.0000
  H   H26       1.0  0.56044  0.71771  0.20218  1.0000
  C   C44       1.0  0.27294  0.76131  0.32828  1.0000
  C   C45       1.0  0.29308  0.78138  0.32632  1.0000
  C   C46       1.0  0.28841  0.79904  0.32642  1.0000
  N   N5        1.0  0.26558  0.78891  0.32557  1.0000
  C   C47       1.0  0.25535  0.76607  0.32640  1.0000
  C   C48       1.0  0.23198  0.74956  0.32651  1.0000
  N   N6        1.0  0.21590  0.77515  0.32592  1.0000
  C   C49       1.0  0.19546  0.77366  0.32648  1.0000
  C   C50       1.0  0.17968  0.75064  0.32870  1.0000
  C   C51       1.0  0.19120  0.73896  0.32682  1.0000
  C   C52       1.0  0.19054  0.79152  0.32562  1.0000
  C   C53       1.0  0.20709  0.81485  0.32528  1.0000
  N   N7        1.0  0.22990  0.82494  0.32544  1.0000
  C   C54       1.0  0.24011  0.84776  0.32639  1.0000
  C   C55       1.0  0.22255  0.85257  0.32730  1.0000
  C   C56       1.0  0.20241  0.83250  0.32458  1.0000
  C   C57       1.0  0.26347  0.86420  0.32718  1.0000
  N   N8        1.0  0.27963  0.83866  0.32574  1.0000
  C   C58       1.0  0.30009  0.84021  0.32631  1.0000
  C   C59       1.0  0.30502  0.82238  0.32703  1.0000
  C   C60       1.0  0.32822  0.82833  0.33107  1.0000
  C   C61       1.0  0.34286  0.83872  0.25826  1.0000
  C   C62       1.0  0.36556  0.84421  0.26258  1.0000
  C   C63       1.0  0.37435  0.83868  0.33798  1.0000
  C   C64       1.0  0.26962  0.88742  0.33148  1.0000
  C   C65       1.0  0.26595  0.89821  0.25867  1.0000
  C   C66       1.0  0.27253  0.92120  0.26307  1.0000
  C   C67       1.0  0.28395  0.93457  0.33843  1.0000
  C   C68       1.0  0.16733  0.78550  0.32571  1.0000
  C   C69       1.0  0.12009  0.77105  0.32976  1.0000
  C   C70       1.0  0.13021  0.76695  0.25485  1.0000
  C   C71       1.0  0.15341  0.77447  0.25184  1.0000
  C   C72       1.0  0.22589  0.72630  0.32689  1.0000
  C   C73       1.0  0.23060  0.71664  0.25282  1.0000
  C   C74       1.0  0.22612  0.69426  0.25580  1.0000
  C   C75       1.0  0.21570  0.68016  0.33075  1.0000
  H   H27       1.0  0.23135  0.68874  0.20269  1.0000
  H   H28       1.0  0.23835  0.72621  0.19767  1.0000
  H   H29       1.0  0.30851  0.78248  0.32623  1.0000
  H   H30       1.0  0.25753  0.79703  0.32493  1.0000
  H   H31       1.0  0.23795  0.81681  0.32556  1.0000
  H   H32       1.0  0.18364  0.72178  0.32674  1.0000
  H   H33       1.0  0.16252  0.74318  0.33065  1.0000
  H   H34       1.0  0.15989  0.77088  0.19683  1.0000
  H   H35       1.0  0.12073  0.75764  0.20207  1.0000
  H   H36       1.0  0.18699  0.83140  0.32369  1.0000
  H   H37       1.0  0.25833  0.88935  0.20202  1.0000
  H   H38       1.0  0.26894  0.92804  0.20943  1.0000
  H   H39       1.0  0.37555  0.85225  0.20892  1.0000
  H   H40       1.0  0.33710  0.84251  0.20165  1.0000
  C   C76       1.0  0.78447  0.54729  0.32745  1.0000
  N   N9        1.0  0.79355  0.59582  0.32710  1.0000
  C   C77       1.0  0.79207  0.61477  0.32766  1.0000
  C   C78       1.0  0.76905  0.60754  0.32981  1.0000
  C   C79       1.0  0.75736  0.58433  0.32791  1.0000
  C   C80       1.0  0.80992  0.63755  0.32681  1.0000
  C   C81       1.0  0.86616  0.64422  0.32743  1.0000
  C   C82       1.0  0.85091  0.66666  0.32577  1.0000
  C   C83       1.0  0.85861  0.57668  0.32716  1.0000
  C   C84       1.0  0.85711  0.53246  0.25892  1.0000
  C   C85       1.0  0.86259  0.51523  0.26312  1.0000
  C   C86       1.0  0.91659  0.66882  0.25938  1.0000
  C   C87       1.0  0.93958  0.68524  0.26362  1.0000
  C   C88       1.0  0.80391  0.65475  0.32684  1.0000
  C   C89       1.0  0.78535  0.67330  0.25592  1.0000
  C   C90       1.0  0.79293  0.65766  0.25287  1.0000
  C   C91       1.0  0.73505  0.52263  0.25387  1.0000
  C   C92       1.0  0.71266  0.50474  0.25678  1.0000
  H   H41       1.0  0.70715  0.49399  0.20370  1.0000
  H   H42       1.0  0.74462  0.52445  0.19870  1.0000
  H   H43       1.0  0.80087  0.51054  0.32715  1.0000
  H   H44       1.0  0.74019  0.57472  0.32764  1.0000
  H   H45       1.0  0.76158  0.61724  0.33162  1.0000
  H   H46       1.0  0.78931  0.64756  0.19795  1.0000
  H   H47       1.0  0.77606  0.67348  0.20308  1.0000
  H   H48       1.0  0.84981  0.68099  0.32491  1.0000
  H   H49       1.0  0.90771  0.66759  0.20281  1.0000
  H   H50       1.0  0.94640  0.69566  0.20994  1.0000
  H   H51       1.0  0.87063  0.51330  0.20941  1.0000
  H   H52       1.0  0.86090  0.54202  0.20234  1.0000
  C   C93       1.0  0.43997  0.17705  0.32795  1.0000
  C   C94       1.0  0.44720  0.16127  0.33011  1.0000
  C   C95       1.0  0.47042  0.17279  0.32820  1.0000
  C   C96       1.0  0.52229  0.32441  0.25936  1.0000
  C   C97       1.0  0.53951  0.34712  0.26354  1.0000
  C   C98       1.0  0.38592  0.24752  0.25979  1.0000
  C   C99       1.0  0.36951  0.25410  0.26400  1.0000
  C   C100      1.0  0.38146  0.11183  0.25589  1.0000
  C   C101      1.0  0.39713  0.13503  0.25303  1.0000
  C   C102      1.0  0.53212  0.21219  0.25424  1.0000
  C   C103      1.0  0.55000  0.20768  0.25711  1.0000
  H   H53       1.0  0.56076  0.21292  0.20401  1.0000
  H   H54       1.0  0.53030  0.21992  0.19908  1.0000
  H   H55       1.0  0.54419  0.29009  0.32761  1.0000
  H   H56       1.0  0.48003  0.16523  0.32818  1.0000
  H   H57       1.0  0.40722  0.14154  0.19808  1.0000
  H   H58       1.0  0.38129  0.10237  0.20299  1.0000
  H   H59       1.0  0.37375  0.16858  0.32500  1.0000
  H   H60       1.0  0.38717  0.23987  0.20321  1.0000
  H   H61       1.0  0.35910  0.25049  0.21033  1.0000
  H   H62       1.0  0.54147  0.35708  0.20981  1.0000
  H   H63       1.0  0.51274  0.31863  0.20277  1.0000
  C   C104      1.0  0.78005  0.25494  0.32700  1.0000
  N   N10       1.0  0.80755  0.24742  0.32621  1.0000
  C   C105      1.0  0.81778  0.27025  0.32704  1.0000
  N   N11       1.0  0.85723  0.26118  0.32664  1.0000
  C   C106      1.0  0.87767  0.26266  0.32722  1.0000
  C   C107      1.0  0.89346  0.28568  0.32939  1.0000
  C   C108      1.0  0.88193  0.29737  0.32748  1.0000
  C   C109      1.0  0.88260  0.24481  0.32636  1.0000
  N   N12       1.0  0.84324  0.21139  0.32614  1.0000
  C   C110      1.0  0.83303  0.18857  0.32710  1.0000
  C   C111      1.0  0.87073  0.20383  0.32527  1.0000
  C   C112      1.0  0.77304  0.19611  0.32697  1.0000
  C   C113      1.0  0.76812  0.21394  0.32771  1.0000
  C   C114      1.0  0.73031  0.19761  0.25891  1.0000
  C   C115      1.0  0.70760  0.19213  0.26321  1.0000
  C   C116      1.0  0.69879  0.19764  0.33862  1.0000
  C   C117      1.0  0.80723  0.13813  0.25933  1.0000
  C   C118      1.0  0.80064  0.11514  0.26367  1.0000
  C   C119      1.0  0.90581  0.25083  0.32641  1.0000
  C   C120      1.0  0.95305  0.26529  0.33035  1.0000
  C   C121      1.0  0.94294  0.26938  0.25546  1.0000
  C   C122      1.0  0.91973  0.26185  0.25247  1.0000
  C   C123      1.0  0.84724  0.31003  0.32753  1.0000
  C   C124      1.0  0.84254  0.31969  0.25349  1.0000
  C   C125      1.0  0.84706  0.34209  0.25638  1.0000
  H   H64       1.0  0.84184  0.34761  0.20328  1.0000
  H   H65       1.0  0.83484  0.31014  0.19828  1.0000
  H   H66       1.0  0.76463  0.25384  0.32692  1.0000
  H   H67       1.0  0.81561  0.23929  0.32558  1.0000
  H   H68       1.0  0.88949  0.31455  0.32736  1.0000
  H   H69       1.0  0.91061  0.29315  0.33133  1.0000
  H   H70       1.0  0.91326  0.26545  0.19751  1.0000
  H   H71       1.0  0.95242  0.27870  0.20265  1.0000
  H   H72       1.0  0.88616  0.20493  0.32450  1.0000
  H   H73       1.0  0.81487  0.14701  0.20271  1.0000
  H   H74       1.0  0.80425  0.10831  0.21003  1.0000
  H   H75       1.0  0.69763  0.18410  0.20954  1.0000
  H   H76       1.0  0.73608  0.19383  0.20229  1.0000
  C   C126      1.0  0.20983  0.64483  0.25704  1.0000
  N   N13       1.0  0.20879  0.62458  0.26152  1.0000
  C   C127      1.0  0.21259  0.56585  0.26044  1.0000
  H   H77       1.0  0.20926  0.65065  0.19513  1.0000
  N   N14       1.0  0.21098  0.58476  0.26326  1.0000
  H   H78       1.0  0.21524  0.56101  0.19949  1.0000
  C   C128      1.0  0.40992  0.56476  0.25738  1.0000
  N   N15       1.0  0.43017  0.58397  0.26186  1.0000
  C   C129      1.0  0.48889  0.64650  0.26081  1.0000
  H   H79       1.0  0.40412  0.55837  0.19547  1.0000
  N   N16       1.0  0.46999  0.62597  0.26362  1.0000
  H   H80       1.0  0.49375  0.65398  0.19986  1.0000
  C   C130      1.0  0.49002  0.84496  0.25768  1.0000
  N   N17       1.0  0.47081  0.84599  0.26207  1.0000
  C   C131      1.0  0.40828  0.84218  0.26069  1.0000
  H   H81       1.0  0.49644  0.84555  0.19579  1.0000
  N   N18       1.0  0.42880  0.84380  0.26362  1.0000
  H   H82       1.0  0.40082  0.83956  0.19970  1.0000
  C   C132      1.0  0.86334  0.39151  0.25764  1.0000
  N   N19       1.0  0.86438  0.41176  0.26212  1.0000
  C   C133      1.0  0.86057  0.47048  0.26103  1.0000
  H   H83       1.0  0.86394  0.38571  0.19573  1.0000
  N   N20       1.0  0.86220  0.45158  0.26385  1.0000
  H   H84       1.0  0.85795  0.47534  0.20006  1.0000
  C   C134      1.0  0.66323  0.47158  0.25803  1.0000
  N   N21       1.0  0.64299  0.45237  0.26250  1.0000
  C   C135      1.0  0.58427  0.38984  0.26144  1.0000
  H   H85       1.0  0.66906  0.47798  0.19612  1.0000
  N   N22       1.0  0.60317  0.41036  0.26425  1.0000
  H   H86       1.0  0.57943  0.38236  0.20049  1.0000
  C   C136      1.0  0.58315  0.19140  0.25825  1.0000
  N   N23       1.0  0.60235  0.19035  0.26265  1.0000
  C   C137      1.0  0.66489  0.19417  0.26131  1.0000
  H   H87       1.0  0.57674  0.19080  0.19637  1.0000
  N   N24       1.0  0.64436  0.19254  0.26421  1.0000
  H   H88       1.0  0.67235  0.19679  0.20031  1.0000
  C   C138      1.0  0.08311  0.32751  0.26116  1.0000
  N   N25       1.0  0.06036  0.31473  0.26390  1.0000
  C   C139      1.0  0.99044  0.27875  0.25707  1.0000
  H   H89       1.0  0.09025  0.33338  0.20024  1.0000
  N   N26       1.0  0.01321  0.28924  0.26180  1.0000
  H   H90       1.0  0.98343  0.27471  0.19510  1.0000
  C   C140      1.0  0.72721  0.75532  0.26157  1.0000
  N   N27       1.0  0.74002  0.74538  0.26429  1.0000
  C   C141      1.0  0.77600  0.71145  0.25748  1.0000
  H   H91       1.0  0.72139  0.75663  0.20062  1.0000
  N   N28       1.0  0.76553  0.72374  0.26221  1.0000
  H   H92       1.0  0.78006  0.70849  0.19551  1.0000
  C   C142      1.0  0.29941  0.97165  0.26091  1.0000
  N   N29       1.0  0.30937  0.99440  0.26374  1.0000
  C   C143      1.0  0.34331  0.06432  0.25720  1.0000
  H   H93       1.0  0.29816  0.96454  0.19997  1.0000
  N   N30       1.0  0.33102  0.04155  0.26183  1.0000
  H   H94       1.0  0.34630  0.07136  0.19527  1.0000
  C   C144      1.0  0.99003  0.70877  0.26109  1.0000
  N   N31       1.0  0.01278  0.72158  0.26370  1.0000
  C   C145      1.0  0.08270  0.75757  0.25660  1.0000
  H   H95       1.0  0.98289  0.70294  0.20018  1.0000
  N   N32       1.0  0.05993  0.74710  0.26142  1.0000
  H   H96       1.0  0.08971  0.76162  0.19461  1.0000
  C   C146      1.0  0.34595  0.28098  0.26146  1.0000
  N   N33       1.0  0.33316  0.29095  0.26410  1.0000
  C   C147      1.0  0.29718  0.32489  0.25700  1.0000
  H   H97       1.0  0.35183  0.27971  0.20058  1.0000
  N   N34       1.0  0.30767  0.31260  0.26182  1.0000
  H   H98       1.0  0.29316  0.32786  0.19501  1.0000
  C   C148      1.0  0.77374  0.06470  0.26137  1.0000
  N   N35       1.0  0.76379  0.04194  0.26408  1.0000
  C   C149      1.0  0.72986  0.97203  0.25725  1.0000
  H   H99       1.0  0.77505  0.07183  0.20042  1.0000
  N   N36       1.0  0.74216  0.99480  0.26198  1.0000
  H   H100      1.0  0.72691  0.96501  0.19528  1.0000
  C   C150      1.0  0.29343  0.51139  0.32873  1.0000
  C   C151      1.0  0.25569  0.48913  0.32682  1.0000
  C   C152      1.0  0.30010  0.45937  0.32690  1.0000
  C   C153      1.0  0.23989  0.39200  0.32584  1.0000
  C   C154      1.0  0.20216  0.36973  0.32788  1.0000
  C   C155      1.0  0.19054  0.39903  0.32771  1.0000
  C   C156      1.0  0.19558  0.42184  0.32657  1.0000
  N   N37       1.0  0.21607  0.44072  0.32612  1.0000
  C   C157      1.0  0.19151  0.45240  0.32774  1.0000
  C   C158      1.0  0.17987  0.42918  0.32588  1.0000
  C   C159      1.0  0.22651  0.53092  0.41044  1.0000
  C   C160      1.0  0.23111  0.51310  0.40816  1.0000
  C   C161      1.0  0.16731  0.38196  0.33195  1.0000
  C   C162      1.0  0.12015  0.34913  0.33878  1.0000
  C   C163      1.0  0.13129  0.36390  0.41119  1.0000
  C   C164      1.0  0.15448  0.37959  0.40890  1.0000
  C   C165      1.0  0.26493  0.36757  0.40113  1.0000
  C   C166      1.0  0.27151  0.35115  0.40194  1.0000
  C   C167      1.0  0.34215  0.50271  0.40232  1.0000
  C   C168      1.0  0.36486  0.51995  0.40310  1.0000
  H   H101      1.0  0.37414  0.52113  0.45818  1.0000
  H   H102      1.0  0.33571  0.49250  0.45696  1.0000
  H   H103      1.0  0.30887  0.52568  0.33091  1.0000
  H   H104      1.0  0.25685  0.36916  0.45565  1.0000
  H   H105      1.0  0.26737  0.34105  0.45689  1.0000
  H   H106      1.0  0.18670  0.35546  0.32935  1.0000
  H   H107      1.0  0.18403  0.46208  0.32918  1.0000
  H   H108      1.0  0.16270  0.41954  0.32546  1.0000
  H   H109      1.0  0.16174  0.39002  0.46243  1.0000
  H   H110      1.0  0.12259  0.36406  0.46617  1.0000
  H   H111      1.0  0.23880  0.51060  0.46189  1.0000
  H   H112      1.0  0.23171  0.54102  0.46550  1.0000
  C   C169      1.0  0.54334  0.78178  0.32913  1.0000
  C   C170      1.0  0.56561  0.76632  0.32719  1.0000
  N   N38       1.0  0.57830  0.78915  0.32640  1.0000
  C   C171      1.0  0.57255  0.82275  0.32742  1.0000
  C   C172      1.0  0.59536  0.84049  0.32752  1.0000
  C   C173      1.0  0.66273  0.84764  0.32618  1.0000
  N   N39       1.0  0.65001  0.82483  0.32632  1.0000
  C   C174      1.0  0.68500  0.83219  0.32821  1.0000
  C   C175      1.0  0.65571  0.79127  0.32806  1.0000
  C   C176      1.0  0.63289  0.77350  0.32700  1.0000
  N   N40       1.0  0.61401  0.77511  0.32656  1.0000
  C   C177      1.0  0.60234  0.73887  0.32820  1.0000
  C   C178      1.0  0.62556  0.75045  0.32640  1.0000
  C   C179      1.0  0.57234  0.74971  0.32775  1.0000
  C   C180      1.0  0.55510  0.72651  0.33166  1.0000
  C   C181      1.0  0.51930  0.68038  0.33830  1.0000
  C   C182      1.0  0.52378  0.69536  0.41080  1.0000
  C   C183      1.0  0.54163  0.71776  0.40860  1.0000
  C   C184      1.0  0.67278  0.78512  0.33233  1.0000
  C   C185      1.0  0.70561  0.77079  0.33920  1.0000
  C   C186      1.0  0.69083  0.76718  0.41163  1.0000
  C   C187      1.0  0.67513  0.77465  0.40928  1.0000
  C   C188      1.0  0.68714  0.89712  0.40156  1.0000
  C   C189      1.0  0.70356  0.92012  0.40234  1.0000
  C   C190      1.0  0.70592  0.93464  0.33054  1.0000
  C   C191      1.0  0.55538  0.82884  0.32776  1.0000
  C   C192      1.0  0.55199  0.83919  0.40285  1.0000
  C   C193      1.0  0.51944  0.83905  0.33150  1.0000
  C   C194      1.0  0.53475  0.84467  0.40359  1.0000
  H   H113      1.0  0.53355  0.85276  0.45865  1.0000
  H   H114      1.0  0.56218  0.84295  0.45751  1.0000
  H   H115      1.0  0.52905  0.78294  0.33135  1.0000
  H   H116      1.0  0.59448  0.79720  0.32580  1.0000
  H   H117      1.0  0.63383  0.81678  0.32650  1.0000
  H   H118      1.0  0.68553  0.88745  0.45610  1.0000
  H   H119      1.0  0.71364  0.92609  0.45728  1.0000
  H   H120      1.0  0.69927  0.83100  0.32985  1.0000
  H   H121      1.0  0.59265  0.72171  0.32963  1.0000
  H   H122      1.0  0.63520  0.74293  0.32583  1.0000
  H   H123      1.0  0.66470  0.77149  0.46283  1.0000
  H   H124      1.0  0.69064  0.75829  0.46658  1.0000
  H   H125      1.0  0.54408  0.72796  0.46227  1.0000
  H   H126      1.0  0.51367  0.69046  0.46586  1.0000
  C   C195      1.0  0.21424  0.75464  0.32659  1.0000
  C   C196      1.0  0.28124  0.85915  0.32618  1.0000
  C   C197      1.0  0.31587  0.86322  0.32750  1.0000
  C   C198      1.0  0.30429  0.87486  0.32566  1.0000
  C   C199      1.0  0.35933  0.82817  0.41040  1.0000
  C   C200      1.0  0.33692  0.82360  0.40804  1.0000
  C   C201      1.0  0.28755  0.92341  0.41082  1.0000
  C   C202      1.0  0.28004  0.90021  0.40850  1.0000
  C   C203      1.0  0.15761  0.78979  0.40067  1.0000
  C   C204      1.0  0.13461  0.78321  0.40151  1.0000
  C   C205      1.0  0.21552  0.71257  0.40198  1.0000
  C   C206      1.0  0.21004  0.68985  0.40278  1.0000
  H   H127      1.0  0.20193  0.68057  0.45783  1.0000
  H   H128      1.0  0.21174  0.71900  0.45663  1.0000
  H   H129      1.0  0.27178  0.74586  0.33052  1.0000
  H   H130      1.0  0.16727  0.79786  0.45520  1.0000
  H   H131      1.0  0.12864  0.78733  0.45648  1.0000
  H   H132      1.0  0.22374  0.86803  0.32889  1.0000
  H   H133      1.0  0.33303  0.87070  0.32903  1.0000
  H   H134      1.0  0.31181  0.89203  0.32512  1.0000
  H   H135      1.0  0.28321  0.89295  0.46199  1.0000
  H   H136      1.0  0.29641  0.93209  0.46580  1.0000
  H   H137      1.0  0.32670  0.81587  0.46170  1.0000
  H   H138      1.0  0.36420  0.82296  0.46552  1.0000
  C   C207      1.0  0.77970  0.52493  0.32935  1.0000
  C   C208      1.0  0.79978  0.52487  0.32737  1.0000
  C   C209      1.0  0.81744  0.54720  0.32738  1.0000
  N   N41       1.0  0.80731  0.55990  0.32660  1.0000
  C   C210      1.0  0.76796  0.55415  0.32757  1.0000
  C   C211      1.0  0.77304  0.57696  0.32768  1.0000
  C   C212      1.0  0.83325  0.64433  0.32646  1.0000
  N   N42       1.0  0.84335  0.63161  0.32656  1.0000
  C   C213      1.0  0.87098  0.66659  0.32841  1.0000
  C   C214      1.0  0.88260  0.63729  0.32812  1.0000
  C   C215      1.0  0.87755  0.61448  0.32706  1.0000
  N   N43       1.0  0.85706  0.59560  0.32665  1.0000
  C   C216      1.0  0.88163  0.58392  0.32829  1.0000
  C   C217      1.0  0.89326  0.60714  0.32641  1.0000
  C   C218      1.0  0.84078  0.55392  0.32788  1.0000
  C   C219      1.0  0.84674  0.53668  0.33182  1.0000
  C   C220      1.0  0.85708  0.50089  0.33848  1.0000
  C   C221      1.0  0.84658  0.50538  0.41098  1.0000
  C   C222      1.0  0.84201  0.52322  0.40874  1.0000
  C   C223      1.0  0.90582  0.65436  0.33227  1.0000
  C   C224      1.0  0.95299  0.68719  0.33888  1.0000
  C   C225      1.0  0.94184  0.67243  0.41136  1.0000
  C   C226      1.0  0.91865  0.65674  0.40918  1.0000
  C   C227      1.0  0.80818  0.66875  0.40180  1.0000
  C   C228      1.0  0.80160  0.68517  0.40256  1.0000
  C   C229      1.0  0.78945  0.68752  0.33077  1.0000
  C   C230      1.0  0.74470  0.53698  0.32792  1.0000
  C   C231      1.0  0.73096  0.53361  0.40300  1.0000
  C   C232      1.0  0.69856  0.50104  0.33174  1.0000
  C   C233      1.0  0.70824  0.51638  0.40378  1.0000
  H   H139      1.0  0.69895  0.51519  0.45882  1.0000
  H   H140      1.0  0.73738  0.54382  0.45764  1.0000
  H   H141      1.0  0.76426  0.51065  0.33156  1.0000
  H   H142      1.0  0.81543  0.57607  0.32585  1.0000
  H   H143      1.0  0.83522  0.61543  0.32665  1.0000
  H   H144      1.0  0.81623  0.66714  0.45635  1.0000
  H   H145      1.0  0.80571  0.69525  0.45751  1.0000
  H   H146      1.0  0.88644  0.68086  0.32997  1.0000
  H   H147      1.0  0.88910  0.57424  0.32981  1.0000
  H   H148      1.0  0.91043  0.61678  0.32597  1.0000
  H   H149      1.0  0.91140  0.64632  0.46276  1.0000
  H   H150      1.0  0.95055  0.67228  0.46631  1.0000
  H   H151      1.0  0.83428  0.52570  0.46245  1.0000
  H   H152      1.0  0.84137  0.49529  0.46607  1.0000
  C   C234      1.0  0.52980  0.25453  0.32985  1.0000
  C   C235      1.0  0.52986  0.27467  0.32794  1.0000
  C   C236      1.0  0.50753  0.27000  0.32790  1.0000
  N   N44       1.0  0.49484  0.24717  0.32709  1.0000
  C   C237      1.0  0.50744  0.23694  0.32796  1.0000
  C   C238      1.0  0.50059  0.21357  0.32800  1.0000
  C   C239      1.0  0.47778  0.19583  0.32803  1.0000
  N   N45       1.0  0.45892  0.19749  0.32742  1.0000
  C   C240      1.0  0.41719  0.17213  0.32708  1.0000
  C   C241      1.0  0.41041  0.18868  0.32680  1.0000
  N   N46       1.0  0.42313  0.21149  0.32698  1.0000
  C   C242      1.0  0.41052  0.22170  0.32786  1.0000
  C   C243      1.0  0.38814  0.20414  0.32875  1.0000
  C   C244      1.0  0.38808  0.18400  0.32609  1.0000
  C   C245      1.0  0.41744  0.24506  0.32856  1.0000
  C   C246      1.0  0.44025  0.26282  0.32747  1.0000
  N   N47       1.0  0.45913  0.26122  0.32708  1.0000
  C   C247      1.0  0.47805  0.28168  0.32754  1.0000
  C   C248      1.0  0.47080  0.29746  0.32868  1.0000
  C   C249      1.0  0.44759  0.28587  0.32676  1.0000
  C   C250      1.0  0.50081  0.28661  0.32835  1.0000
  C   C251      1.0  0.51804  0.30981  0.33227  1.0000
  C   C252      1.0  0.55383  0.35594  0.33890  1.0000
  C   C253      1.0  0.54932  0.34097  0.41145  1.0000
  C   C254      1.0  0.53150  0.31855  0.40918  1.0000
  C   C255      1.0  0.40037  0.25121  0.33268  1.0000
  C   C256      1.0  0.36754  0.26555  0.33926  1.0000
  C   C257      1.0  0.38228  0.26917  0.41174  1.0000
  C   C258      1.0  0.39798  0.26167  0.40958  1.0000
  C   C259      1.0  0.40000  0.14892  0.32702  1.0000
  C   C260      1.0  0.38596  0.13917  0.40188  1.0000
  C   C261      1.0  0.36953  0.11617  0.40253  1.0000
  C   C262      1.0  0.36721  0.10168  0.33067  1.0000
  C   C263      1.0  0.51776  0.20748  0.32833  1.0000
  C   C264      1.0  0.52112  0.19711  0.40340  1.0000
  C   C265      1.0  0.55370  0.19728  0.33206  1.0000
  C   C266      1.0  0.53836  0.19164  0.40414  1.0000
  H   H153      1.0  0.53955  0.18354  0.45920  1.0000
  H   H154      1.0  0.51092  0.19334  0.45807  1.0000
  H   H155      1.0  0.54409  0.25337  0.33202  1.0000
  H   H156      1.0  0.47867  0.23912  0.32631  1.0000
  H   H157      1.0  0.43931  0.21954  0.32720  1.0000
  H   H158      1.0  0.43751  0.14411  0.33206  1.0000
  H   H159      1.0  0.38753  0.14881  0.45646  1.0000
  H   H160      1.0  0.35941  0.11018  0.45742  1.0000
  H   H161      1.0  0.37387  0.20533  0.33017  1.0000
  H   H162      1.0  0.48049  0.31462  0.33012  1.0000
  H   H163      1.0  0.43795  0.29340  0.32630  1.0000
  H   H164      1.0  0.40838  0.26484  0.46316  1.0000
  H   H165      1.0  0.38243  0.27803  0.46668  1.0000
  H   H166      1.0  0.52900  0.30836  0.46293  1.0000
  H   H167      1.0  0.55942  0.34586  0.46651  1.0000
  C   C267      1.0  0.80019  0.27501  0.32896  1.0000
  C   C268      1.0  0.78472  0.23728  0.32709  1.0000
  C   C269      1.0  0.84115  0.28677  0.32716  1.0000
  C   C270      1.0  0.85889  0.28169  0.32726  1.0000
  C   C271      1.0  0.86605  0.22148  0.32600  1.0000
  C   C272      1.0  0.85060  0.18376  0.32804  1.0000
  C   C273      1.0  0.80967  0.17213  0.32789  1.0000
  C   C274      1.0  0.79191  0.17718  0.32688  1.0000
  N   N48       1.0  0.79351  0.19766  0.32644  1.0000
  C   C275      1.0  0.75727  0.17310  0.32815  1.0000
  C   C276      1.0  0.76886  0.16146  0.32632  1.0000
  C   C277      1.0  0.74492  0.20798  0.33174  1.0000
  C   C278      1.0  0.71378  0.20814  0.41103  1.0000
  C   C279      1.0  0.73619  0.21270  0.40872  1.0000
  C   C280      1.0  0.80352  0.14891  0.33216  1.0000
  C   C281      1.0  0.78919  0.10175  0.33901  1.0000
  C   C282      1.0  0.78558  0.11290  0.41145  1.0000
  C   C283      1.0  0.79305  0.13608  0.40910  1.0000
  C   C284      1.0  0.91552  0.24654  0.40136  1.0000
  C   C285      1.0  0.93852  0.25312  0.40215  1.0000
  C   C286      1.0  0.85759  0.32375  0.40262  1.0000
  C   C287      1.0  0.85745  0.35617  0.33135  1.0000
  C   C288      1.0  0.86307  0.34647  0.40340  1.0000
  H   H168      1.0  0.87116  0.35574  0.45847  1.0000
  H   H169      1.0  0.86136  0.31731  0.45727  1.0000
  H   H170      1.0  0.80135  0.29046  0.33119  1.0000
  H   H171      1.0  0.83519  0.21951  0.32631  1.0000
  H   H172      1.0  0.90585  0.23847  0.45590  1.0000
  H   H173      1.0  0.94448  0.24900  0.45709  1.0000
  H   H174      1.0  0.84940  0.16830  0.32967  1.0000
  H   H175      1.0  0.74011  0.16562  0.32963  1.0000
  H   H176      1.0  0.76133  0.14429  0.32574  1.0000
  H   H177      1.0  0.78989  0.14334  0.46267  1.0000
  H   H178      1.0  0.77669  0.10419  0.46639  1.0000
  H   H179      1.0  0.74640  0.22045  0.46235  1.0000
  H   H180      1.0  0.70890  0.21335  0.46613  1.0000
  C   C289      1.0  0.21208  0.65753  0.33492  1.0000
  C   C290      1.0  0.20887  0.61457  0.33933  1.0000
  C   C291      1.0  0.20956  0.62543  0.42063  1.0000
  C   C292      1.0  0.21159  0.64697  0.41702  1.0000
  H   H181      1.0  0.21369  0.65532  0.47575  1.0000
  C   C293      1.0  0.20898  0.59403  0.34010  1.0000
  C   C294      1.0  0.21227  0.55433  0.33944  1.0000
  C   C295      1.0  0.20942  0.56341  0.42024  1.0000
  C   C296      1.0  0.20846  0.58352  0.42214  1.0000
  C   C297      1.0  0.20790  0.59381  0.50285  1.0000
  C   C298      1.0  0.20891  0.61482  0.50211  1.0000
  H   H182      1.0  0.20782  0.58663  0.56271  1.0000
  H   H183      1.0  0.20932  0.62237  0.56146  1.0000
  H   H184      1.0  0.20855  0.55566  0.47947  1.0000
  C   C299      1.0  0.39720  0.55431  0.33525  1.0000
  C   C300      1.0  0.44016  0.59405  0.33968  1.0000
  C   C301      1.0  0.42928  0.58389  0.42097  1.0000
  C   C302      1.0  0.40774  0.56439  0.41735  1.0000
  H   H185      1.0  0.39938  0.55813  0.47609  1.0000
  C   C303      1.0  0.46070  0.61471  0.34046  1.0000
  C   C304      1.0  0.50039  0.65771  0.33982  1.0000
  C   C305      1.0  0.49130  0.64577  0.42061  1.0000
  C   C306      1.0  0.47119  0.62470  0.42250  1.0000
  C   C307      1.0  0.46088  0.61385  0.50321  1.0000
  C   C308      1.0  0.43987  0.59385  0.50246  1.0000
  H   H186      1.0  0.46804  0.62096  0.56307  1.0000
  H   H187      1.0  0.43230  0.58673  0.56180  1.0000
  H   H188      1.0  0.49903  0.65265  0.47986  1.0000
  C   C309      1.0  0.50043  0.84268  0.33560  1.0000
  C   C310      1.0  0.46068  0.84588  0.33984  1.0000
  C   C311      1.0  0.47080  0.84515  0.42118  1.0000
  C   C312      1.0  0.49031  0.84312  0.41765  1.0000
  H   H189      1.0  0.49654  0.84100  0.47641  1.0000
  C   C313      1.0  0.44002  0.84576  0.34051  1.0000
  C   C314      1.0  0.39703  0.84246  0.33964  1.0000
  C   C315      1.0  0.40892  0.84527  0.42050  1.0000
  C   C316      1.0  0.42999  0.84624  0.42250  1.0000
  C   C317      1.0  0.44079  0.84676  0.50326  1.0000
  C   C318      1.0  0.46080  0.84576  0.50262  1.0000
  H   H190      1.0  0.43366  0.84682  0.56310  1.0000
  H   H191      1.0  0.46790  0.84533  0.56200  1.0000
  H   H192      1.0  0.40200  0.84612  0.47970  1.0000
  C   C319      1.0  0.86107  0.37880  0.33551  1.0000
  C   C320      1.0  0.86429  0.42177  0.33992  1.0000
  C   C321      1.0  0.86356  0.41089  0.42122  1.0000
  C   C322      1.0  0.86152  0.38935  0.41761  1.0000
  H   H193      1.0  0.85941  0.38099  0.47635  1.0000
  C   C323      1.0  0.86416  0.44230  0.34069  1.0000
  C   C324      1.0  0.86086  0.48199  0.34002  1.0000
  C   C325      1.0  0.86369  0.47290  0.42082  1.0000
  C   C326      1.0  0.86465  0.45280  0.42273  1.0000
  C   C327      1.0  0.86519  0.44250  0.50344  1.0000
  C   C328      1.0  0.86418  0.42148  0.50271  1.0000
  H   H194      1.0  0.86523  0.44966  0.56330  1.0000
  H   H195      1.0  0.86373  0.41392  0.56205  1.0000
  H   H196      1.0  0.86453  0.48064  0.48007  1.0000
  C   C329      1.0  0.67593  0.48203  0.33591  1.0000
  C   C330      1.0  0.63297  0.44227  0.34032  1.0000
  C   C331      1.0  0.64382  0.45243  0.42162  1.0000
  C   C332      1.0  0.66536  0.47194  0.41801  1.0000
  H   H197      1.0  0.67371  0.47819  0.47674  1.0000
  C   C333      1.0  0.61243  0.42161  0.34109  1.0000
  C   C334      1.0  0.57274  0.37863  0.34044  1.0000
  C   C335      1.0  0.58181  0.39055  0.42123  1.0000
  C   C336      1.0  0.60192  0.41162  0.42313  1.0000
  C   C337      1.0  0.61220  0.42245  0.50383  1.0000
  C   C338      1.0  0.63321  0.44246  0.50311  1.0000
  H   H198      1.0  0.60502  0.41535  0.56370  1.0000
  H   H199      1.0  0.64075  0.44958  0.56244  1.0000
  H   H200      1.0  0.57405  0.38366  0.48047  1.0000
  C   C339      1.0  0.57272  0.19367  0.33616  1.0000
  C   C340      1.0  0.61246  0.19045  0.34042  1.0000
  C   C341      1.0  0.60231  0.19116  0.42176  1.0000
  C   C342      1.0  0.58281  0.19321  0.41822  1.0000
  H   H201      1.0  0.57656  0.19532  0.47698  1.0000
  C   C343      1.0  0.63312  0.19057  0.34110  1.0000
  C   C344      1.0  0.67611  0.19388  0.34026  1.0000
  C   C345      1.0  0.66420  0.19104  0.42111  1.0000
  C   C346      1.0  0.64313  0.19008  0.42310  1.0000
  C   C347      1.0  0.63229  0.18953  0.50385  1.0000
  C   C348      1.0  0.61229  0.19054  0.50321  1.0000
  H   H202      1.0  0.63941  0.18949  0.56368  1.0000
  H   H203      1.0  0.60518  0.19099  0.56258  1.0000
  H   H204      1.0  0.67109  0.19019  0.48032  1.0000
  C   C349      1.0  0.09618  0.33380  0.34025  1.0000
  C   C350      1.0  0.04850  0.30711  0.34074  1.0000
  C   C351      1.0  0.06027  0.31261  0.42286  1.0000
  C   C352      1.0  0.08404  0.32530  0.42105  1.0000
  H   H205      1.0  0.09246  0.32880  0.48033  1.0000
  C   C353      1.0  0.02473  0.29513  0.33977  1.0000
  C   C354      1.0  0.97704  0.27409  0.33481  1.0000
  C   C355      1.0  0.98887  0.27969  0.41708  1.0000
  C   C356      1.0  0.01255  0.28973  0.42097  1.0000
  C   C357      1.0  0.02435  0.29516  0.50258  1.0000
  C   C358      1.0  0.04803  0.30610  0.50350  1.0000
  H   H206      1.0  0.01584  0.29134  0.56184  1.0000
  H   H207      1.0  0.05624  0.31018  0.56342  1.0000
  H   H208      1.0  0.98038  0.27734  0.47567  1.0000
  C   C359      1.0  0.72091  0.76212  0.34065  1.0000
  C   C360      1.0  0.74763  0.74115  0.34113  1.0000
  C   C361      1.0  0.74212  0.74744  0.42326  1.0000
  C   C362      1.0  0.72941  0.75850  0.42144  1.0000
  H   H209      1.0  0.72591  0.76344  0.48072  1.0000
  C   C363      1.0  0.75962  0.72937  0.34018  1.0000
  C   C364      1.0  0.78063  0.70271  0.33522  1.0000
  C   C365      1.0  0.77505  0.70896  0.41749  1.0000
  C   C366      1.0  0.76499  0.72258  0.42138  1.0000
  C   C367      1.0  0.75954  0.72896  0.50298  1.0000
  C   C368      1.0  0.74863  0.74173  0.50390  1.0000
  H   H210      1.0  0.76334  0.72426  0.56224  1.0000
  H   H211      1.0  0.74448  0.74580  0.56382  1.0000
  H   H212      1.0  0.77736  0.70280  0.47608  1.0000
  C   C369      1.0  0.29261  0.95855  0.33996  1.0000
  C   C370      1.0  0.31358  0.00623  0.34062  1.0000
  C   C371      1.0  0.30726  0.99441  0.42270  1.0000
  C   C372      1.0  0.29619  0.97065  0.42080  1.0000
  H   H213      1.0  0.29123  0.96219  0.48004  1.0000
  C   C373      1.0  0.32536  0.03000  0.33975  1.0000
  C   C374      1.0  0.35201  0.07768  0.33501  1.0000
  C   C375      1.0  0.34573  0.06582  0.41722  1.0000
  C   C376      1.0  0.33210  0.04214  0.42100  1.0000
  C   C377      1.0  0.32568  0.03029  0.50257  1.0000
  C   C378      1.0  0.31294  0.00662  0.50338  1.0000
  H   H214      1.0  0.33034  0.03878  0.56186  1.0000
  H   H215      1.0  0.30879  0.99838  0.56328  1.0000
  H   H216      1.0  0.35184  0.07428  0.47585  1.0000
  C   C379      1.0  0.97696  0.70251  0.34022  1.0000
  C   C380      1.0  0.02464  0.72922  0.34048  1.0000
  C   C381      1.0  0.01286  0.72374  0.42266  1.0000
  C   C382      1.0  0.98910  0.71103  0.42096  1.0000
  H   H217      1.0  0.98067  0.70755  0.48026  1.0000
  C   C383      1.0  0.04841  0.74121  0.33943  1.0000
  C   C384      1.0  0.09609  0.76223  0.33430  1.0000
  C   C385      1.0  0.08427  0.75667  0.41661  1.0000
  C   C386      1.0  0.06059  0.74661  0.42058  1.0000
  C   C387      1.0  0.04878  0.74119  0.50223  1.0000
  C   C388      1.0  0.02510  0.73028  0.50326  1.0000
  H   H218      1.0  0.05729  0.74500  0.56146  1.0000
  H   H219      1.0  0.01689  0.72615  0.56321  1.0000
  H   H220      1.0  0.09275  0.75900  0.47517  1.0000
  C   C389      1.0  0.35221  0.27419  0.34061  1.0000
  C   C390      1.0  0.32552  0.29518  0.34088  1.0000
  C   C391      1.0  0.33098  0.28888  0.42305  1.0000
  C   C392      1.0  0.34367  0.27781  0.42135  1.0000
  H   H221      1.0  0.34715  0.27287  0.48066  1.0000
  C   C393      1.0  0.31353  0.30697  0.33983  1.0000
  C   C394      1.0  0.29249  0.33361  0.33470  1.0000
  C   C395      1.0  0.29806  0.32737  0.41701  1.0000
  C   C396      1.0  0.30811  0.31373  0.42098  1.0000
  C   C397      1.0  0.31351  0.30734  0.50263  1.0000
  C   C398      1.0  0.32444  0.29460  0.50364  1.0000
  H   H222      1.0  0.30966  0.31202  0.56186  1.0000
  H   H223      1.0  0.32851  0.29047  0.56360  1.0000
  H   H224      1.0  0.29569  0.33349  0.47558  1.0000
  C   C399      1.0  0.78052  0.07777  0.34045  1.0000
  C   C400      1.0  0.75956  0.03009  0.34091  1.0000
  C   C401      1.0  0.76583  0.04187  0.42304  1.0000
  C   C402      1.0  0.77689  0.06563  0.42124  1.0000
  H   H225      1.0  0.78183  0.07406  0.48052  1.0000
  C   C403      1.0  0.74777  0.00632  0.33995  1.0000
  C   C404      1.0  0.72111  0.95864  0.33499  1.0000
  C   C405      1.0  0.72735  0.97046  0.41726  1.0000
  C   C406      1.0  0.74098  0.99415  0.42115  1.0000
  C   C407      1.0  0.74735  0.00596  0.50275  1.0000
  C   C408      1.0  0.76012  0.02963  0.50368  1.0000
  H   H226      1.0  0.74265  0.99745  0.56202  1.0000
  H   H227      1.0  0.76418  0.03785  0.56361  1.0000
  H   H228      1.0  0.72119  0.96198  0.47585  1.0000
