data_image0
_chemical_formula_structural       CNHCNHCNHC6H3C6H3C3NCH3C3NCH3C3NCH3CNHCNHCNHC6H3C6H3C3NCH3C3NCH3C3NCH3CNHCNHCNHC6H3C6H3C3NCH3C3NCH3C3NCH3CNHCNHCNHC6H3C6H3C3NCH3C3NCH3C3NCH3
_chemical_formula_sum              "C108 N24 H72"
_cell_length_a       29.708
_cell_length_b       29.708
_cell_length_c       14.9911
_cell_angle_alpha    90
_cell_angle_beta     90
_cell_angle_gamma    120

_space_group_name_H-M_alt    "P 1"
_space_group_IT_number       1

loop_
  _space_group_symop_operation_xyz
  'x, y, z'

loop_
  _atom_site_type_symbol
  _atom_site_label
  _atom_site_symmetry_multiplicity
  _atom_site_fract_x
  _atom_site_fract_y
  _atom_site_fract_z
  _atom_site_occupancy
  C   C1        1.0  0.27282  0.29776  0.31922  1.0000
  N   N1        1.0  0.29885  0.27126  0.31567  1.0000
  H   H1        1.0  0.29160  0.33371  0.29091  1.0000
  C   C2        1.0  0.20302  0.47522  0.31909  1.0000
  N   N2        1.0  0.22950  0.02775  0.31565  1.0000
  H   H2        1.0  0.16702  0.45804  0.29097  1.0000
  C   C3        1.0  0.02554  0.22793  0.31906  1.0000
  N   N3        1.0  0.47300  0.20189  0.31557  1.0000
  H   H3        1.0  0.04270  0.20906  0.29107  1.0000
  C   C4        1.0  0.11066  0.30639  0.35298  1.0000
  C   C5        1.0  0.14114  0.36136  0.35134  1.0000
  C   C6        1.0  0.19633  0.39009  0.35303  1.0000
  C   C7        1.0  0.22082  0.35961  0.35140  1.0000
  C   C8        1.0  0.19436  0.30442  0.35308  1.0000
  C   C9        1.0  0.13939  0.27993  0.35138  1.0000
  H   H4        1.0  0.25995  0.37877  0.34677  1.0000
  H   H5        1.0  0.11943  0.24080  0.34668  1.0000
  H   H6        1.0  0.12198  0.38133  0.34673  1.0000
  C   C10       1.0  0.38934  0.19526  0.33936  1.0000
  C   C11       1.0  0.36150  0.14025  0.33915  1.0000
  C   C12       1.0  0.30651  0.11142  0.33946  1.0000
  C   C13       1.0  0.27934  0.13925  0.33918  1.0000
  C   C14       1.0  0.30550  0.19424  0.33943  1.0000
  C   C15       1.0  0.36051  0.22142  0.33907  1.0000
  H   H7        1.0  0.23955  0.11902  0.34019  1.0000
  H   H8        1.0  0.38007  0.26121  0.34000  1.0000
  H   H9        1.0  0.38173  0.12068  0.34006  1.0000
  C   C16       1.0  0.20059  0.22315  0.38540  1.0000
  C   C17       1.0  0.22124  0.27538  0.35327  1.0000
  C   C18       1.0  0.27760  0.22125  0.34252  1.0000
  N   N4        1.0  0.22905  0.19902  0.37711  1.0000
  C   C19       1.0  0.15463  0.19417  0.44422  1.0000
  H   H10       1.0  0.14729  0.22054  0.48407  1.0000
  H   H11       1.0  0.16051  0.16951  0.49140  1.0000
  H   H12       1.0  0.12050  0.16906  0.40413  1.0000
  C   C20       1.0  0.27760  0.47759  0.38537  1.0000
  C   C21       1.0  0.22538  0.44601  0.35323  1.0000
  C   C22       1.0  0.27951  0.05652  0.34250  1.0000
  N   N5        1.0  0.30174  0.03019  0.37708  1.0000
  C   C23       1.0  0.30658  0.46063  0.44423  1.0000
  H   H13       1.0  0.28019  0.42692  0.48409  1.0000
  H   H14       1.0  0.33123  0.49116  0.49140  1.0000
  H   H15       1.0  0.33169  0.45159  0.40417  1.0000
  C   C24       1.0  0.02320  0.30028  0.38490  1.0000
  C   C25       1.0  0.05474  0.27952  0.35308  1.0000
  C   C26       1.0  0.44424  0.22316  0.34229  1.0000
  N   N6        1.0  0.47059  0.27175  0.37675  1.0000
  C   C27       1.0  0.04007  0.34605  0.44416  1.0000
  H   H16       1.0  0.07376  0.35330  0.48401  1.0000
  H   H17       1.0  0.00949  0.34003  0.49133  1.0000
  H   H18       1.0  0.04913  0.38029  0.40436  1.0000
  C   C28       1.0  0.27282  0.79777  0.31922  1.0000
  N   N7        1.0  0.29885  0.77126  0.31567  1.0000
  H   H19       1.0  0.29160  0.83371  0.29091  1.0000
  C   C29       1.0  0.20302  0.97522  0.31909  1.0000
  N   N8        1.0  0.22950  0.52775  0.31565  1.0000
  H   H20       1.0  0.16702  0.95804  0.29097  1.0000
  C   C30       1.0  0.02554  0.72793  0.31906  1.0000
  N   N9        1.0  0.47300  0.70189  0.31557  1.0000
  H   H21       1.0  0.04270  0.70906  0.29107  1.0000
  C   C31       1.0  0.11066  0.80639  0.35298  1.0000
  C   C32       1.0  0.14114  0.86136  0.35134  1.0000
  C   C33       1.0  0.19633  0.89009  0.35303  1.0000
  C   C34       1.0  0.22082  0.85961  0.35140  1.0000
  C   C35       1.0  0.19436  0.80442  0.35308  1.0000
  C   C36       1.0  0.13939  0.77993  0.35138  1.0000
  H   H22       1.0  0.25995  0.87877  0.34677  1.0000
  H   H23       1.0  0.11943  0.74080  0.34668  1.0000
  H   H24       1.0  0.12198  0.88134  0.34673  1.0000
  C   C37       1.0  0.38934  0.69526  0.33936  1.0000
  C   C38       1.0  0.36150  0.64025  0.33915  1.0000
  C   C39       1.0  0.30651  0.61142  0.33946  1.0000
  C   C40       1.0  0.27934  0.63925  0.33918  1.0000
  C   C41       1.0  0.30550  0.69424  0.33943  1.0000
  C   C42       1.0  0.36051  0.72142  0.33907  1.0000
  H   H25       1.0  0.23955  0.61902  0.34019  1.0000
  H   H26       1.0  0.38007  0.76121  0.34000  1.0000
  H   H27       1.0  0.38173  0.62069  0.34006  1.0000
  C   C43       1.0  0.20059  0.72315  0.38540  1.0000
  C   C44       1.0  0.22124  0.77538  0.35327  1.0000
  C   C45       1.0  0.27760  0.72125  0.34252  1.0000
  N   N10       1.0  0.22905  0.69902  0.37711  1.0000
  C   C46       1.0  0.15463  0.69417  0.44422  1.0000
  H   H28       1.0  0.14729  0.72054  0.48407  1.0000
  H   H29       1.0  0.16051  0.66951  0.49140  1.0000
  H   H30       1.0  0.12050  0.66906  0.40413  1.0000
  C   C47       1.0  0.27760  0.97759  0.38537  1.0000
  C   C48       1.0  0.22538  0.94601  0.35323  1.0000
  C   C49       1.0  0.27951  0.55651  0.34250  1.0000
  N   N11       1.0  0.30174  0.53019  0.37708  1.0000
  C   C50       1.0  0.30658  0.96063  0.44423  1.0000
  H   H31       1.0  0.28019  0.92692  0.48409  1.0000
  H   H32       1.0  0.33123  0.99116  0.49140  1.0000
  H   H33       1.0  0.33169  0.95159  0.40417  1.0000
  C   C51       1.0  0.02320  0.80028  0.38490  1.0000
  C   C52       1.0  0.05474  0.77952  0.35308  1.0000
  C   C53       1.0  0.44424  0.72316  0.34229  1.0000
  N   N12       1.0  0.47059  0.77175  0.37675  1.0000
  C   C54       1.0  0.04007  0.84605  0.44416  1.0000
  H   H34       1.0  0.07375  0.85330  0.48401  1.0000
  H   H35       1.0  0.00949  0.84003  0.49133  1.0000
  H   H36       1.0  0.04913  0.88029  0.40436  1.0000
  C   C55       1.0  0.77282  0.29776  0.31922  1.0000
  N   N13       1.0  0.79885  0.27126  0.31567  1.0000
  H   H37       1.0  0.79160  0.33371  0.29091  1.0000
  C   C56       1.0  0.70302  0.47522  0.31909  1.0000
  N   N14       1.0  0.72950  0.02775  0.31565  1.0000
  H   H38       1.0  0.66702  0.45804  0.29097  1.0000
  C   C57       1.0  0.52554  0.22793  0.31906  1.0000
  N   N15       1.0  0.97300  0.20189  0.31557  1.0000
  H   H39       1.0  0.54270  0.20906  0.29107  1.0000
  C   C58       1.0  0.61066  0.30639  0.35298  1.0000
  C   C59       1.0  0.64114  0.36136  0.35134  1.0000
  C   C60       1.0  0.69633  0.39009  0.35303  1.0000
  C   C61       1.0  0.72082  0.35961  0.35140  1.0000
  C   C62       1.0  0.69436  0.30442  0.35308  1.0000
  C   C63       1.0  0.63939  0.27993  0.35138  1.0000
  H   H40       1.0  0.75995  0.37877  0.34677  1.0000
  H   H41       1.0  0.61943  0.24080  0.34668  1.0000
  H   H42       1.0  0.62198  0.38133  0.34673  1.0000
  C   C64       1.0  0.88934  0.19526  0.33936  1.0000
  C   C65       1.0  0.86150  0.14025  0.33915  1.0000
  C   C66       1.0  0.80651  0.11142  0.33946  1.0000
  C   C67       1.0  0.77934  0.13925  0.33918  1.0000
  C   C68       1.0  0.80550  0.19424  0.33943  1.0000
  C   C69       1.0  0.86051  0.22142  0.33907  1.0000
  H   H43       1.0  0.73955  0.11902  0.34019  1.0000
  H   H44       1.0  0.88007  0.26121  0.34000  1.0000
  H   H45       1.0  0.88173  0.12068  0.34006  1.0000
  C   C70       1.0  0.70059  0.22315  0.38540  1.0000
  C   C71       1.0  0.72124  0.27538  0.35327  1.0000
  C   C72       1.0  0.77760  0.22125  0.34252  1.0000
  N   N16       1.0  0.72905  0.19902  0.37711  1.0000
  C   C73       1.0  0.65463  0.19417  0.44422  1.0000
  H   H46       1.0  0.64729  0.22054  0.48407  1.0000
  H   H47       1.0  0.66051  0.16951  0.49140  1.0000
  H   H48       1.0  0.62050  0.16906  0.40413  1.0000
  C   C74       1.0  0.77760  0.47759  0.38537  1.0000
  C   C75       1.0  0.72538  0.44601  0.35323  1.0000
  C   C76       1.0  0.77951  0.05652  0.34250  1.0000
  N   N17       1.0  0.80174  0.03019  0.37708  1.0000
  C   C77       1.0  0.80658  0.46063  0.44423  1.0000
  H   H49       1.0  0.78019  0.42692  0.48409  1.0000
  H   H50       1.0  0.83123  0.49116  0.49140  1.0000
  H   H51       1.0  0.83169  0.45159  0.40417  1.0000
  C   C78       1.0  0.52320  0.30028  0.38490  1.0000
  C   C79       1.0  0.55474  0.27952  0.35308  1.0000
  C   C80       1.0  0.94424  0.22316  0.34229  1.0000
  N   N18       1.0  0.97059  0.27175  0.37675  1.0000
  C   C81       1.0  0.54007  0.34605  0.44416  1.0000
  H   H52       1.0  0.57375  0.35330  0.48401  1.0000
  H   H53       1.0  0.50949  0.34003  0.49133  1.0000
  H   H54       1.0  0.54913  0.38029  0.40436  1.0000
  C   C82       1.0  0.77282  0.79777  0.31922  1.0000
  N   N19       1.0  0.79885  0.77126  0.31567  1.0000
  H   H55       1.0  0.79160  0.83371  0.29091  1.0000
  C   C83       1.0  0.70302  0.97522  0.31909  1.0000
  N   N20       1.0  0.72950  0.52775  0.31565  1.0000
  H   H56       1.0  0.66702  0.95804  0.29097  1.0000
  C   C84       1.0  0.52554  0.72793  0.31906  1.0000
  N   N21       1.0  0.97300  0.70189  0.31557  1.0000
  H   H57       1.0  0.54270  0.70906  0.29107  1.0000
  C   C85       1.0  0.61066  0.80639  0.35298  1.0000
  C   C86       1.0  0.64114  0.86136  0.35134  1.0000
  C   C87       1.0  0.69633  0.89009  0.35303  1.0000
  C   C88       1.0  0.72082  0.85961  0.35140  1.0000
  C   C89       1.0  0.69436  0.80442  0.35308  1.0000
  C   C90       1.0  0.63939  0.77993  0.35138  1.0000
  H   H58       1.0  0.75995  0.87877  0.34677  1.0000
  H   H59       1.0  0.61943  0.74080  0.34668  1.0000
  H   H60       1.0  0.62198  0.88134  0.34673  1.0000
  C   C91       1.0  0.88934  0.69526  0.33936  1.0000
  C   C92       1.0  0.86150  0.64025  0.33915  1.0000
  C   C93       1.0  0.80651  0.61142  0.33946  1.0000
  C   C94       1.0  0.77934  0.63925  0.33918  1.0000
  C   C95       1.0  0.80550  0.69424  0.33943  1.0000
  C   C96       1.0  0.86051  0.72142  0.33907  1.0000
  H   H61       1.0  0.73955  0.61902  0.34019  1.0000
  H   H62       1.0  0.88007  0.76121  0.34000  1.0000
  H   H63       1.0  0.88173  0.62069  0.34006  1.0000
  C   C97       1.0  0.70059  0.72315  0.38540  1.0000
  C   C98       1.0  0.72124  0.77538  0.35327  1.0000
  C   C99       1.0  0.77760  0.72125  0.34252  1.0000
  N   N22       1.0  0.72905  0.69902  0.37711  1.0000
  C   C100      1.0  0.65463  0.69417  0.44422  1.0000
  H   H64       1.0  0.64729  0.72054  0.48407  1.0000
  H   H65       1.0  0.66051  0.66951  0.49140  1.0000
  H   H66       1.0  0.62050  0.66906  0.40413  1.0000
  C   C101      1.0  0.77760  0.97759  0.38537  1.0000
  C   C102      1.0  0.72538  0.94601  0.35323  1.0000
  C   C103      1.0  0.77951  0.55651  0.34250  1.0000
  N   N23       1.0  0.80174  0.53019  0.37708  1.0000
  C   C104      1.0  0.80658  0.96063  0.44423  1.0000
  H   H67       1.0  0.78019  0.92692  0.48409  1.0000
  H   H68       1.0  0.83123  0.99116  0.49140  1.0000
  H   H69       1.0  0.83169  0.95159  0.40417  1.0000
  C   C105      1.0  0.52320  0.80028  0.38490  1.0000
  C   C106      1.0  0.55474  0.77952  0.35308  1.0000
  C   C107      1.0  0.94424  0.72316  0.34229  1.0000
  N   N24       1.0  0.97059  0.77175  0.37675  1.0000
  C   C108      1.0  0.54007  0.84605  0.44416  1.0000
  H   H70       1.0  0.57375  0.85330  0.48401  1.0000
  H   H71       1.0  0.50949  0.84003  0.49133  1.0000
  H   H72       1.0  0.54913  0.88029  0.40436  1.0000
