data_image0
_chemical_formula_structural       C3NC3NC5NC5NC20H18N4CNC2O2HCHCNC2O2HCHC8H8NC3O2HCHNC3O2HCH
_chemical_formula_sum              "C60 N12 H34 O8"
_cell_length_a       25.6175
_cell_length_b       25.6153
_cell_length_c       14.6777
_cell_angle_alpha    90
_cell_angle_beta     90
_cell_angle_gamma    89.97

_space_group_name_H-M_alt    "P 1"
_space_group_IT_number       1

loop_
  _space_group_symop_operation_xyz
  'x, y, z'

loop_
  _atom_site_type_symbol
  _atom_site_label
  _atom_site_symmetry_multiplicity
  _atom_site_fract_x
  _atom_site_fract_y
  _atom_site_fract_z
  _atom_site_occupancy
  C   C1        1.0  0.91272  0.14677  0.33940  1.0000
  C   C2        1.0  0.87450  0.10880  0.33994  1.0000
  C   C3        1.0  0.89876  0.05992  0.33890  1.0000
  N   N1        1.0  0.95075  0.07027  0.33851  1.0000
  C   C4        1.0  0.96144  0.12219  0.33902  1.0000
  C   C5        1.0  0.01042  0.14859  0.33871  1.0000
  C   C6        1.0  0.05978  0.12311  0.33683  1.0000
  N   N2        1.0  0.06981  0.07122  0.33531  1.0000
  C   C7        1.0  0.12163  0.06085  0.33393  1.0000
  C   C8        1.0  0.14644  0.10940  0.33421  1.0000
  C   C9        1.0  0.10847  0.14761  0.33664  1.0000
  C   C10       1.0  0.14681  0.01133  0.33212  1.0000
  C   C11       1.0  0.12006  0.96253  0.33158  1.0000
  N   N3        1.0  0.06807  0.95218  0.33210  1.0000
  C   C12       1.0  0.05735  0.90026  0.33183  1.0000
  C   C13       1.0  0.10607  0.87568  0.33051  1.0000
  C   C14       1.0  0.14430  0.91364  0.33107  1.0000
  C   C15       1.0  0.00837  0.87384  0.33226  1.0000
  C   C16       1.0  0.95901  0.89933  0.33399  1.0000
  N   N4        1.0  0.94900  0.95122  0.33540  1.0000
  C   C17       1.0  0.89719  0.96158  0.33748  1.0000
  C   C18       1.0  0.87236  0.91306  0.33701  1.0000
  C   C19       1.0  0.91033  0.87482  0.33555  1.0000
  C   C20       1.0  0.87204  0.01110  0.33905  1.0000
  C   C21       1.0  0.81613  0.01168  0.34015  1.0000
  C   C22       1.0  0.70434  0.01195  0.34167  1.0000
  C   C23       1.0  0.73259  0.02201  0.26050  1.0000
  C   C24       1.0  0.78758  0.02166  0.25965  1.0000
  C   C25       1.0  0.00861  0.81790  0.33209  1.0000
  C   C26       1.0  0.00866  0.70608  0.33252  1.0000
  C   C27       1.0  0.99748  0.73444  0.25230  1.0000
  C   C28       1.0  0.99760  0.78948  0.25180  1.0000
  C   C29       1.0  0.20276  0.01072  0.33203  1.0000
  C   C30       1.0  0.23109  0.00041  0.25135  1.0000
  C   C31       1.0  0.28613  0.99991  0.25176  1.0000
  C   C32       1.0  0.31459  0.01006  0.33228  1.0000
  C   C33       1.0  0.01016  0.20452  0.33969  1.0000
  C   C34       1.0  0.01977  0.23316  0.25914  1.0000
  C   C35       1.0  0.01014  0.31633  0.34142  1.0000
  C   C36       1.0  0.01996  0.28814  0.26009  1.0000
  H   H1        1.0  0.02767  0.30728  0.20048  1.0000
  H   H2        1.0  0.02700  0.21405  0.19912  1.0000
  H   H3        1.0  0.90536  0.18603  0.33948  1.0000
  H   H4        1.0  0.83530  0.11641  0.34081  1.0000
  H   H5        1.0  0.97719  0.04365  0.33846  1.0000
  H   H6        1.0  0.04162  0.97880  0.33248  1.0000
  H   H7        1.0  0.11587  0.18684  0.33778  1.0000
  H   H8        1.0  0.18571  0.11655  0.33307  1.0000
  H   H9        1.0  0.21174  0.99311  0.19160  1.0000
  H   H10       1.0  0.30546  0.99222  0.19213  1.0000
  H   H11       1.0  0.18349  0.90600  0.33102  1.0000
  H   H12       1.0  0.11343  0.83643  0.32972  1.0000
  H   H13       1.0  0.83308  0.90593  0.33797  1.0000
  H   H14       1.0  0.90293  0.83559  0.33555  1.0000
  H   H15       1.0  0.98941  0.80876  0.19234  1.0000
  H   H16       1.0  0.98919  0.71504  0.19298  1.0000
  H   H17       1.0  0.80674  0.02890  0.19969  1.0000
  H   H18       1.0  0.71349  0.02990  0.20093  1.0000
  N   N5        1.0  0.00763  0.65384  0.32723  1.0000
  N   N6        1.0  0.36683  0.00892  0.32687  1.0000
  N   N7        1.0  0.00991  0.36855  0.34791  1.0000
  N   N8        1.0  0.65214  0.01163  0.34799  1.0000
  C   C37       1.0  0.01129  0.45826  0.31021  1.0000
  N   N9        1.0  0.00956  0.54944  0.27499  1.0000
  C   C38       1.0  0.00755  0.49915  0.24502  1.0000
  C   C39       1.0  0.00173  0.49073  0.15228  1.0000
  O   O1        1.0  0.03002  0.51571  0.10137  1.0000
  O   O2        1.0  0.95930  0.47777  0.11932  1.0000
  H   H19       1.0  0.93351  0.46300  0.15021  1.0000
  C   C40       1.0  0.01165  0.40528  0.28797  1.0000
  H   H20       1.0  0.01332  0.39546  0.22264  1.0000
  C   C41       1.0  0.56247  0.01242  0.31004  1.0000
  N   N10       1.0  0.47130  0.01057  0.27474  1.0000
  C   C42       1.0  0.52160  0.00859  0.24485  1.0000
  C   C43       1.0  0.53000  0.00281  0.15207  1.0000
  O   O3        1.0  0.50547  0.03134  0.10091  1.0000
  O   O4        1.0  0.54312  0.96023  0.11965  1.0000
  H   H21       1.0  0.55779  0.93446  0.15083  1.0000
  C   C44       1.0  0.61546  0.01280  0.28789  1.0000
  H   H22       1.0  0.62534  0.01395  0.22255  1.0000
  C   C45       1.0  0.78816  0.00207  0.42147  1.0000
  C   C46       1.0  0.73313  0.00223  0.42201  1.0000
  C   C47       1.0  0.01952  0.78976  0.41269  1.0000
  C   C48       1.0  0.01966  0.73477  0.41283  1.0000
  C   C49       1.0  0.28599  0.02031  0.41301  1.0000
  C   C50       1.0  0.23100  0.02053  0.41294  1.0000
  C   C51       1.0  0.00068  0.23243  0.42113  1.0000
  C   C52       1.0  0.00066  0.28747  0.42176  1.0000
  H   H23       1.0  0.99363  0.30651  0.48193  1.0000
  H   H24       1.0  0.99374  0.21278  0.48069  1.0000
  H   H25       1.0  0.21160  0.02801  0.47257  1.0000
  H   H26       1.0  0.30481  0.02751  0.47310  1.0000
  H   H27       1.0  0.02746  0.80924  0.47207  1.0000
  H   H28       1.0  0.02763  0.71601  0.47270  1.0000
  H   H29       1.0  0.71405  0.99498  0.48204  1.0000
  H   H30       1.0  0.80777  0.99474  0.48095  1.0000
  N   N11       1.0  0.01620  0.47309  0.39881  1.0000
  C   C53       1.0  0.01796  0.52339  0.42899  1.0000
  C   C54       1.0  0.01466  0.56424  0.36353  1.0000
  C   C55       1.0  0.02196  0.53177  0.52166  1.0000
  O   O5        1.0  0.05053  0.50327  0.56658  1.0000
  O   O6        1.0  0.98414  0.55274  0.55910  1.0000
  H   H31       1.0  0.98132  0.55771  0.61857  1.0000
  C   C56       1.0  0.01831  0.61725  0.38459  1.0000
  H   H32       1.0  0.03040  0.62714  0.44644  1.0000
  N   N12       1.0  0.54760  0.01733  0.39862  1.0000
  C   C57       1.0  0.49729  0.01904  0.42875  1.0000
  C   C58       1.0  0.45646  0.01566  0.36328  1.0000
  C   C59       1.0  0.48890  0.02303  0.52141  1.0000
  O   O7        1.0  0.51721  0.05179  0.56624  1.0000
  O   O8        1.0  0.46829  0.98504  0.55890  1.0000
  H   H33       1.0  0.46339  0.98219  0.61839  1.0000
  C   C60       1.0  0.40344  0.01930  0.38433  1.0000
  H   H34       1.0  0.39356  0.03120  0.44630  1.0000
