data_image0
_chemical_formula_structural       C3NC3NC5NC5NC20H18N4C3NC3NC5NC5NC20H18N4C3NC3NC5NC5NC20H18N4C3NC3NC5NC5NC20H18N4C3NC3NC5NC5NC20H18N4C3NC3NC5NC5NC20H18N4C3H2CHC3H2CHC3H2CHC3H2CHC3H2CHC3H2CHC3H2CHC3H2CHC3H2CHC3H2CHC3H2CHC3H2CHC8H8C8H8C8H8C8H8C8H8C8H8C3H2CHC3H2CHC3H2CHC3H2CHC3H2CHC3H2CHC3H2CHC3H2CHC3H2CHC3H2CHC3H2CHC3H2CH
_chemical_formula_sum              "C360 N48 H228"
_cell_length_a       69.2548
_cell_length_b       69.2547
_cell_length_c       14.8719
_cell_angle_alpha    90.0046
_cell_angle_beta     89.9098
_cell_angle_gamma    120

_space_group_name_H-M_alt    "P 1"
_space_group_IT_number       1

loop_
  _space_group_symop_operation_xyz
  'x, y, z'

loop_
  _atom_site_type_symbol
  _atom_site_label
  _atom_site_symmetry_multiplicity
  _atom_site_fract_x
  _atom_site_fract_y
  _atom_site_fract_z
  _atom_site_occupancy
  C   C1        1.0  0.21341  0.37792  0.32264  1.0000
  C   C2        1.0  0.23337  0.37787  0.32451  1.0000
  C   C3        1.0  0.25084  0.39995  0.32512  1.0000
  N   N1        1.0  0.24074  0.41248  0.32400  1.0000
  C   C4        1.0  0.21812  0.40003  0.32258  1.0000
  C   C5        1.0  0.20181  0.40688  0.32131  1.0000
  C   C6        1.0  0.20685  0.42949  0.32226  1.0000
  N   N2        1.0  0.22715  0.44814  0.32278  1.0000
  C   C7        1.0  0.22568  0.46690  0.32374  1.0000
  C   C8        1.0  0.20296  0.45987  0.32397  1.0000
  C   C9        1.0  0.19138  0.43685  0.32316  1.0000
  C   C10       1.0  0.24334  0.48937  0.32405  1.0000
  C   C11       1.0  0.26641  0.49609  0.32372  1.0000
  N   N3        1.0  0.27638  0.48351  0.32378  1.0000
  C   C12       1.0  0.29894  0.49602  0.32353  1.0000
  C   C13       1.0  0.30372  0.51817  0.32301  1.0000
  C   C14       1.0  0.28384  0.51821  0.32346  1.0000
  C   C15       1.0  0.31522  0.48921  0.32371  1.0000
  C   C16       1.0  0.31032  0.46671  0.32432  1.0000
  N   N4        1.0  0.29005  0.44800  0.32494  1.0000
  C   C17       1.0  0.29160  0.42929  0.32589  1.0000
  C   C18       1.0  0.31442  0.43657  0.32559  1.0000
  C   C19       1.0  0.32594  0.45958  0.32475  1.0000
  C   C20       1.0  0.27397  0.40671  0.32662  1.0000
  C   C21       1.0  0.28033  0.38996  0.32877  1.0000
  C   C22       1.0  0.29978  0.36189  0.33068  1.0000
  C   C23       1.0  0.29295  0.36720  0.24904  1.0000
  C   C24       1.0  0.28349  0.38111  0.24805  1.0000
  C   C25       1.0  0.33808  0.50633  0.32386  1.0000
  C   C26       1.0  0.38172  0.54443  0.32269  1.0000
  C   C27       1.0  0.37116  0.53378  0.24166  1.0000
  C   C28       1.0  0.34959  0.51497  0.24201  1.0000
  C   C29       1.0  0.23770  0.50656  0.32428  1.0000
  C   C30       1.0  0.23729  0.51688  0.24295  1.0000
  C   C31       1.0  0.23460  0.53573  0.24376  1.0000
  C   C32       1.0  0.23225  0.54471  0.32589  1.0000
  C   C33       1.0  0.17867  0.39019  0.31918  1.0000
  C   C34       1.0  0.16662  0.38482  0.23762  1.0000
  C   C35       1.0  0.13117  0.36206  0.31762  1.0000
  C   C36       1.0  0.14325  0.37092  0.23704  1.0000
  H   H1        1.0  0.13498  0.36787  0.17707  1.0000
  H   H2        1.0  0.17470  0.39169  0.17838  1.0000
  H   H3        1.0  0.19803  0.36389  0.32176  1.0000
  H   H4        1.0  0.23467  0.36380  0.32502  1.0000
  H   H5        1.0  0.24877  0.42848  0.32432  1.0000
  H   H6        1.0  0.26835  0.46751  0.32427  1.0000
  H   H7        1.0  0.17439  0.42729  0.32356  1.0000
  H   H8        1.0  0.19576  0.46964  0.32469  1.0000
  H   H9        1.0  0.23981  0.51127  0.18283  1.0000
  H   H10       1.0  0.23513  0.54320  0.18389  1.0000
  H   H11       1.0  0.28265  0.53234  0.32348  1.0000
  H   H12       1.0  0.31907  0.53226  0.32266  1.0000
  H   H13       1.0  0.32180  0.42695  0.32565  1.0000
  H   H14       1.0  0.34292  0.46931  0.32441  1.0000
  H   H15       1.0  0.34204  0.50810  0.18201  1.0000
  H   H16       1.0  0.37889  0.54003  0.18123  1.0000
  H   H17       1.0  0.27964  0.38539  0.18755  1.0000
  H   H18       1.0  0.29545  0.36160  0.18903  1.0000
  N   N5        1.0  0.40147  0.56301  0.31589  1.0000
  N   N6        1.0  0.23107  0.56328  0.33280  1.0000
  N   N7        1.0  0.10890  0.35006  0.31144  1.0000
  N   N8        1.0  0.31011  0.34995  0.33709  1.0000
  C   C37       1.0  0.69355  0.83764  0.32377  1.0000
  C   C38       1.0  0.69359  0.85764  0.32557  1.0000
  C   C39       1.0  0.67151  0.85303  0.32609  1.0000
  N   N9        1.0  0.65898  0.83040  0.32504  1.0000
  C   C40       1.0  0.67144  0.82023  0.32371  1.0000
  C   C41       1.0  0.66459  0.79708  0.32249  1.0000
  C   C42       1.0  0.64198  0.77951  0.32347  1.0000
  N   N10       1.0  0.62333  0.78115  0.32401  1.0000
  C   C43       1.0  0.60457  0.76092  0.32496  1.0000
  C   C44       1.0  0.61160  0.74523  0.32516  1.0000
  C   C45       1.0  0.63462  0.75667  0.32437  1.0000
  C   C46       1.0  0.58209  0.75611  0.32527  1.0000
  C   C47       1.0  0.57537  0.77245  0.32494  1.0000
  N   N11       1.0  0.58796  0.79501  0.32493  1.0000
  C   C48       1.0  0.57544  0.80505  0.32462  1.0000
  C   C49       1.0  0.55330  0.78769  0.32421  1.0000
  C   C50       1.0  0.55325  0.76776  0.32473  1.0000
  C   C51       1.0  0.58225  0.82814  0.32463  1.0000
  C   C52       1.0  0.60475  0.84574  0.32516  1.0000
  N   N12       1.0  0.62346  0.84419  0.32586  1.0000
  C   C53       1.0  0.64217  0.86444  0.32668  1.0000
  C   C54       1.0  0.63489  0.87999  0.32622  1.0000
  C   C55       1.0  0.61187  0.86849  0.32543  1.0000
  C   C56       1.0  0.66474  0.86940  0.32747  1.0000
  C   C57       1.0  0.68150  0.89251  0.32950  1.0000
  C   C58       1.0  0.70957  0.94002  0.33113  1.0000
  C   C59       1.0  0.70432  0.92786  0.24956  1.0000
  C   C60       1.0  0.69042  0.90448  0.24871  1.0000
  C   C61       1.0  0.56513  0.83388  0.32461  1.0000
  C   C62       1.0  0.52703  0.83940  0.32315  1.0000
  C   C63       1.0  0.53776  0.83950  0.24220  1.0000
  C   C64       1.0  0.55657  0.83674  0.24269  1.0000
  C   C65       1.0  0.56491  0.73327  0.32550  1.0000
  C   C66       1.0  0.55462  0.72255  0.24418  1.0000
  C   C67       1.0  0.53578  0.70101  0.24501  1.0000
  C   C68       1.0  0.52678  0.68966  0.32713  1.0000
  C   C69       1.0  0.68129  0.79063  0.32039  1.0000
  C   C70       1.0  0.68673  0.78397  0.23881  1.0000
  C   C71       1.0  0.70942  0.77126  0.31884  1.0000
  C   C72       1.0  0.70060  0.77447  0.23825  1.0000
  H   H19       1.0  0.70372  0.76928  0.17827  1.0000
  H   H20       1.0  0.67990  0.78517  0.17957  1.0000
  H   H21       1.0  0.70758  0.83628  0.32294  1.0000
  H   H22       1.0  0.70766  0.87301  0.32603  1.0000
  H   H23       1.0  0.64299  0.82243  0.32529  1.0000
  H   H24       1.0  0.60395  0.80298  0.32528  1.0000
  H   H25       1.0  0.64418  0.74924  0.32469  1.0000
  H   H26       1.0  0.60183  0.72826  0.32585  1.0000
  H   H27       1.0  0.56025  0.73069  0.18407  1.0000
  H   H28       1.0  0.52832  0.69407  0.18516  1.0000
  H   H29       1.0  0.53913  0.75244  0.32479  1.0000
  H   H30       1.0  0.53921  0.78894  0.32380  1.0000
  H   H31       1.0  0.64450  0.89698  0.32622  1.0000
  H   H32       1.0  0.60215  0.87574  0.32502  1.0000
  H   H33       1.0  0.56349  0.83606  0.18275  1.0000
  H   H34       1.0  0.53156  0.84097  0.18173  1.0000
  H   H35       1.0  0.68618  0.89632  0.18827  1.0000
  H   H36       1.0  0.70999  0.93592  0.18953  1.0000
  N   N13       1.0  0.50846  0.84059  0.31623  1.0000
  N   N14       1.0  0.50819  0.66992  0.33406  1.0000
  N   N15       1.0  0.72141  0.76097  0.31266  1.0000
  N   N16       1.0  0.72152  0.96230  0.33739  1.0000
  C   C73       1.0  0.23383  0.85805  0.32181  1.0000
  C   C74       1.0  0.21382  0.83809  0.32360  1.0000
  C   C75       1.0  0.21844  0.82062  0.32415  1.0000
  N   N17       1.0  0.24106  0.83072  0.32315  1.0000
  C   C76       1.0  0.25124  0.85335  0.32182  1.0000
  C   C77       1.0  0.27440  0.86965  0.32068  1.0000
  C   C78       1.0  0.29196  0.86461  0.32171  1.0000
  N   N18       1.0  0.29032  0.84432  0.32222  1.0000
  C   C79       1.0  0.31054  0.84578  0.32331  1.0000
  C   C80       1.0  0.32623  0.86850  0.32363  1.0000
  C   C81       1.0  0.31480  0.88009  0.32277  1.0000
  C   C82       1.0  0.31536  0.82812  0.32363  1.0000
  C   C83       1.0  0.29901  0.80505  0.32316  1.0000
  N   N19       1.0  0.27646  0.79508  0.32305  1.0000
  C   C84       1.0  0.26641  0.77252  0.32269  1.0000
  C   C85       1.0  0.28378  0.76774  0.32231  1.0000
  C   C86       1.0  0.30370  0.78762  0.32292  1.0000
  C   C87       1.0  0.24332  0.75624  0.32268  1.0000
  C   C88       1.0  0.22572  0.76115  0.32319  1.0000
  N   N20       1.0  0.22728  0.78141  0.32387  1.0000
  C   C89       1.0  0.20702  0.77986  0.32471  1.0000
  C   C90       1.0  0.19147  0.75704  0.32426  1.0000
  C   C91       1.0  0.20298  0.74552  0.32346  1.0000
  C   C92       1.0  0.20207  0.79749  0.32551  1.0000
  C   C93       1.0  0.17895  0.79113  0.32758  1.0000
  C   C94       1.0  0.13144  0.77171  0.32951  1.0000
  C   C95       1.0  0.14363  0.77855  0.24785  1.0000
  C   C96       1.0  0.16701  0.78804  0.24685  1.0000
  C   C97       1.0  0.23758  0.73338  0.32273  1.0000
  C   C98       1.0  0.23203  0.68974  0.32150  1.0000
  C   C99       1.0  0.23202  0.70037  0.24048  1.0000
  C   C100      1.0  0.23478  0.72194  0.24085  1.0000
  C   C101      1.0  0.33819  0.83377  0.32405  1.0000
  C   C102      1.0  0.34902  0.83422  0.24287  1.0000
  C   C103      1.0  0.37056  0.83694  0.24391  1.0000
  C   C104      1.0  0.38179  0.83924  0.32617  1.0000
  C   C105      1.0  0.28085  0.89280  0.31865  1.0000
  C   C106      1.0  0.28763  0.90493  0.23716  1.0000
  C   C107      1.0  0.30021  0.94030  0.31733  1.0000
  C   C108      1.0  0.29711  0.92830  0.23671  1.0000
  H   H37       1.0  0.30236  0.93663  0.17678  1.0000
  H   H38       1.0  0.28647  0.89691  0.17789  1.0000
  H   H39       1.0  0.23519  0.87344  0.32096  1.0000
  H   H40       1.0  0.19846  0.83679  0.32398  1.0000
  H   H41       1.0  0.24904  0.82270  0.32347  1.0000
  H   H42       1.0  0.26848  0.80311  0.32342  1.0000
  H   H43       1.0  0.32223  0.89708  0.32320  1.0000
  H   H44       1.0  0.34321  0.87570  0.32445  1.0000
  H   H45       1.0  0.34097  0.83178  0.18265  1.0000
  H   H46       1.0  0.37759  0.83645  0.18413  1.0000
  H   H47       1.0  0.31902  0.78881  0.32305  1.0000
  H   H48       1.0  0.28252  0.75240  0.32190  1.0000
  H   H49       1.0  0.17449  0.74966  0.32428  1.0000
  H   H50       1.0  0.19572  0.72854  0.32307  1.0000
  H   H51       1.0  0.23555  0.72955  0.18086  1.0000
  H   H52       1.0  0.23062  0.69270  0.18004  1.0000
  H   H53       1.0  0.17517  0.79192  0.18637  1.0000
  H   H54       1.0  0.13558  0.77612  0.18786  1.0000
  N   N21       1.0  0.23086  0.67000  0.31469  1.0000
  N   N22       1.0  0.40153  0.84039  0.33331  1.0000
  N   N23       1.0  0.31050  0.96258  0.31128  1.0000
  N   N24       1.0  0.10917  0.76136  0.33591  1.0000
  C   C109      1.0  0.88044  0.67115  0.32356  1.0000
  C   C110      1.0  0.86048  0.67120  0.32556  1.0000
  C   C111      1.0  0.84302  0.64911  0.32629  1.0000
  N   N25       1.0  0.85311  0.63659  0.32520  1.0000
  C   C112      1.0  0.87574  0.64904  0.32365  1.0000
  C   C113      1.0  0.89205  0.64219  0.32237  1.0000
  C   C114      1.0  0.88701  0.61959  0.32347  1.0000
  N   N26       1.0  0.86671  0.60093  0.32420  1.0000
  C   C115      1.0  0.86818  0.58217  0.32525  1.0000
  C   C116      1.0  0.89090  0.58921  0.32532  1.0000
  C   C117      1.0  0.90248  0.61222  0.32434  1.0000
  C   C118      1.0  0.85052  0.55970  0.32576  1.0000
  C   C119      1.0  0.82745  0.55298  0.32556  1.0000
  N   N27       1.0  0.81748  0.56556  0.32559  1.0000
  C   C120      1.0  0.79492  0.55305  0.32541  1.0000
  C   C121      1.0  0.79014  0.53090  0.32504  1.0000
  C   C122      1.0  0.81002  0.53086  0.32546  1.0000
  C   C123      1.0  0.77864  0.55986  0.32552  1.0000
  C   C124      1.0  0.78354  0.58236  0.32599  1.0000
  N   N28       1.0  0.80381  0.60107  0.32649  1.0000
  C   C125      1.0  0.80226  0.61977  0.32729  1.0000
  C   C126      1.0  0.77943  0.61249  0.32700  1.0000
  C   C127      1.0  0.76792  0.58948  0.32633  1.0000
  C   C128      1.0  0.81988  0.64235  0.32788  1.0000
  C   C129      1.0  0.81352  0.65911  0.32987  1.0000
  C   C130      1.0  0.79409  0.68719  0.33157  1.0000
  C   C131      1.0  0.80098  0.68189  0.24998  1.0000
  C   C132      1.0  0.81048  0.66800  0.24910  1.0000
  C   C133      1.0  0.75578  0.54273  0.32571  1.0000
  C   C134      1.0  0.71215  0.50464  0.32460  1.0000
  C   C135      1.0  0.72277  0.51532  0.24355  1.0000
  C   C136      1.0  0.74435  0.53411  0.24386  1.0000
  C   C137      1.0  0.85616  0.54251  0.32598  1.0000
  C   C138      1.0  0.85663  0.53221  0.24468  1.0000
  C   C139      1.0  0.85932  0.51336  0.24554  1.0000
  C   C140      1.0  0.86163  0.50437  0.32768  1.0000
  C   C141      1.0  0.91519  0.65889  0.32001  1.0000
  C   C142      1.0  0.92727  0.66424  0.23836  1.0000
  C   C143      1.0  0.96270  0.68700  0.31802  1.0000
  C   C144      1.0  0.95065  0.67813  0.23756  1.0000
  H   H55       1.0  0.95893  0.68119  0.17751  1.0000
  H   H56       1.0  0.91921  0.65739  0.17919  1.0000
  H   H57       1.0  0.89583  0.68518  0.32262  1.0000
  H   H58       1.0  0.85919  0.68526  0.32598  1.0000
  H   H59       1.0  0.84509  0.62059  0.32562  1.0000
  H   H60       1.0  0.82551  0.58156  0.32593  1.0000
  H   H61       1.0  0.91948  0.62178  0.32456  1.0000
  H   H62       1.0  0.89810  0.57943  0.32604  1.0000
  H   H63       1.0  0.85418  0.53785  0.18455  1.0000
  H   H64       1.0  0.85887  0.50592  0.18569  1.0000
  H   H65       1.0  0.81121  0.51673  0.32549  1.0000
  H   H66       1.0  0.77480  0.51681  0.32473  1.0000
  H   H67       1.0  0.77206  0.62211  0.32701  1.0000
  H   H68       1.0  0.75094  0.57975  0.32605  1.0000
  H   H69       1.0  0.75194  0.54099  0.18386  1.0000
  H   H70       1.0  0.71510  0.50906  0.18313  1.0000
  H   H71       1.0  0.81436  0.66372  0.18864  1.0000
  H   H72       1.0  0.79856  0.68751  0.18995  1.0000
  N   N29       1.0  0.69239  0.48607  0.31784  1.0000
  N   N30       1.0  0.86279  0.48579  0.33464  1.0000
  N   N31       1.0  0.98497  0.69899  0.31163  1.0000
  N   N32       1.0  0.78374  0.69912  0.33786  1.0000
  C   C145      1.0  0.40032  0.21143  0.32420  1.0000
  C   C146      1.0  0.40027  0.19143  0.32600  1.0000
  C   C147      1.0  0.42235  0.19605  0.32681  1.0000
  N   N33       1.0  0.43488  0.21867  0.32590  1.0000
  C   C148      1.0  0.42243  0.22884  0.32441  1.0000
  C   C149      1.0  0.42928  0.25200  0.32328  1.0000
  C   C150      1.0  0.45189  0.26956  0.32450  1.0000
  N   N34       1.0  0.47054  0.26792  0.32519  1.0000
  C   C151      1.0  0.48930  0.28815  0.32637  1.0000
  C   C152      1.0  0.48227  0.30384  0.32656  1.0000
  C   C153      1.0  0.45925  0.29240  0.32551  1.0000
  C   C154      1.0  0.51177  0.29296  0.32686  1.0000
  C   C155      1.0  0.51849  0.27661  0.32654  1.0000
  N   N35       1.0  0.50591  0.25405  0.32649  1.0000
  C   C156      1.0  0.51842  0.24401  0.32621  1.0000
  C   C157      1.0  0.54057  0.26138  0.32583  1.0000
  C   C158      1.0  0.54061  0.28130  0.32635  1.0000
  C   C159      1.0  0.51161  0.22092  0.32623  1.0000
  C   C160      1.0  0.48911  0.20332  0.32660  1.0000
  N   N36       1.0  0.47040  0.20488  0.32711  1.0000
  C   C161      1.0  0.45169  0.18462  0.32779  1.0000
  C   C162      1.0  0.45897  0.16907  0.32744  1.0000
  C   C163      1.0  0.48198  0.18058  0.32684  1.0000
  C   C164      1.0  0.42911  0.17967  0.32830  1.0000
  C   C165      1.0  0.41235  0.15655  0.33013  1.0000
  C   C166      1.0  0.38428  0.10904  0.33137  1.0000
  C   C167      1.0  0.38964  0.12128  0.24989  1.0000
  C   C168      1.0  0.40356  0.14465  0.24923  1.0000
  C   C169      1.0  0.52873  0.21518  0.32631  1.0000
  C   C170      1.0  0.56683  0.20965  0.32495  1.0000
  C   C171      1.0  0.55618  0.20959  0.24397  1.0000
  C   C172      1.0  0.53737  0.21235  0.24441  1.0000
  C   C173      1.0  0.52896  0.31579  0.32718  1.0000
  C   C174      1.0  0.53930  0.32657  0.24589  1.0000
  C   C175      1.0  0.55815  0.34810  0.24677  1.0000
  C   C176      1.0  0.56710  0.35938  0.32894  1.0000
  C   C177      1.0  0.41259  0.25845  0.32095  1.0000
  C   C178      1.0  0.40729  0.26519  0.23932  1.0000
  C   C179      1.0  0.38447  0.27783  0.31904  1.0000
  C   C180      1.0  0.39340  0.27466  0.23856  1.0000
  H   H73       1.0  0.39039  0.27991  0.17854  1.0000
  H   H74       1.0  0.41421  0.26401  0.18015  1.0000
  H   H75       1.0  0.38629  0.21279  0.32321  1.0000
  H   H76       1.0  0.38620  0.17607  0.32633  1.0000
  H   H77       1.0  0.45088  0.22664  0.32638  1.0000
  H   H78       1.0  0.48991  0.24608  0.32693  1.0000
  H   H79       1.0  0.44969  0.29984  0.32582  1.0000
  H   H80       1.0  0.49204  0.32081  0.32740  1.0000
  H   H81       1.0  0.53371  0.31848  0.18575  1.0000
  H   H82       1.0  0.56564  0.35509  0.18692  1.0000
  H   H83       1.0  0.55474  0.29662  0.32645  1.0000
  H   H84       1.0  0.55466  0.26012  0.32547  1.0000
  H   H85       1.0  0.44935  0.15209  0.32731  1.0000
  H   H86       1.0  0.49171  0.17332  0.32651  1.0000
  H   H87       1.0  0.53051  0.21306  0.18444  1.0000
  H   H88       1.0  0.56244  0.20814  0.18351  1.0000
  H   H89       1.0  0.40788  0.15286  0.18886  1.0000
  H   H90       1.0  0.38409  0.11326  0.18978  1.0000
  N   N37       1.0  0.58541  0.20847  0.31806  1.0000
  N   N38       1.0  0.58567  0.37913  0.33589  1.0000
  N   N39       1.0  0.37248  0.28811  0.31270  1.0000
  N   N40       1.0  0.37233  0.08676  0.33745  1.0000
  C   C181      1.0  0.86004  0.19102  0.32325  1.0000
  C   C182      1.0  0.88004  0.21098  0.32503  1.0000
  C   C183      1.0  0.87542  0.22844  0.32564  1.0000
  N   N41       1.0  0.85280  0.21835  0.32466  1.0000
  C   C184      1.0  0.84263  0.19572  0.32331  1.0000
  C   C185      1.0  0.81947  0.17942  0.32217  1.0000
  C   C186      1.0  0.80191  0.18445  0.32331  1.0000
  N   N42       1.0  0.80355  0.20475  0.32394  1.0000
  C   C187      1.0  0.78332  0.20328  0.32508  1.0000
  C   C188      1.0  0.76763  0.18055  0.32530  1.0000
  C   C189      1.0  0.77907  0.16897  0.32434  1.0000
  C   C190      1.0  0.77850  0.22094  0.32553  1.0000
  C   C191      1.0  0.79485  0.24400  0.32514  1.0000
  N   N43       1.0  0.81740  0.25398  0.32495  1.0000
  C   C192      1.0  0.82745  0.27654  0.32466  1.0000
  C   C193      1.0  0.81008  0.28131  0.32441  1.0000
  C   C194      1.0  0.79015  0.26143  0.32504  1.0000
  C   C195      1.0  0.85054  0.29282  0.32456  1.0000
  C   C196      1.0  0.86814  0.28792  0.32496  1.0000
  N   N44       1.0  0.86658  0.26765  0.32560  1.0000
  C   C197      1.0  0.88684  0.26920  0.32631  1.0000
  C   C198      1.0  0.90238  0.29203  0.32584  1.0000
  C   C199      1.0  0.89088  0.30354  0.32514  1.0000
  C   C200      1.0  0.89179  0.25158  0.32703  1.0000
  C   C201      1.0  0.91491  0.25795  0.32900  1.0000
  C   C202      1.0  0.96242  0.27738  0.33056  1.0000
  C   C203      1.0  0.95026  0.27050  0.24901  1.0000
  C   C204      1.0  0.92688  0.26102  0.24819  1.0000
  C   C205      1.0  0.85627  0.31568  0.32463  1.0000
  C   C206      1.0  0.86178  0.35930  0.32342  1.0000
  C   C207      1.0  0.86187  0.34871  0.24240  1.0000
  C   C208      1.0  0.85911  0.32714  0.24276  1.0000
  C   C209      1.0  0.75567  0.21529  0.32600  1.0000
  C   C210      1.0  0.74491  0.21486  0.24480  1.0000
  C   C211      1.0  0.72337  0.21216  0.24587  1.0000
  C   C212      1.0  0.71206  0.20981  0.32812  1.0000
  C   C213      1.0  0.81303  0.15627  0.32001  1.0000
  C   C214      1.0  0.80636  0.14421  0.23842  1.0000
  C   C215      1.0  0.79367  0.10877  0.31837  1.0000
  C   C216      1.0  0.79686  0.12083  0.23782  1.0000
  H   H91       1.0  0.79167  0.11256  0.17785  1.0000
  H   H92       1.0  0.80756  0.15227  0.17920  1.0000
  H   H93       1.0  0.85868  0.17564  0.32238  1.0000
  H   H94       1.0  0.89541  0.21228  0.32542  1.0000
  H   H95       1.0  0.84483  0.22637  0.32499  1.0000
  H   H96       1.0  0.82537  0.24595  0.32521  1.0000
  H   H97       1.0  0.77164  0.15198  0.32464  1.0000
  H   H98       1.0  0.75066  0.17335  0.32611  1.0000
  H   H99       1.0  0.75303  0.21739  0.18461  1.0000
  H   H100      1.0  0.71641  0.21270  0.18610  1.0000
  H   H101      1.0  0.77484  0.26024  0.32522  1.0000
  H   H102      1.0  0.81133  0.29666  0.32407  1.0000
  H   H103      1.0  0.91937  0.29941  0.32577  1.0000
  H   H104      1.0  0.89814  0.32052  0.32475  1.0000
  H   H105      1.0  0.85841  0.31957  0.18277  1.0000
  H   H106      1.0  0.86332  0.35641  0.18196  1.0000
  H   H107      1.0  0.91874  0.25713  0.18777  1.0000
  H   H108      1.0  0.95834  0.27292  0.18897  1.0000
  N   N45       1.0  0.86297  0.37906  0.31663  1.0000
  N   N46       1.0  0.69232  0.20866  0.33526  1.0000
  N   N47       1.0  0.78338  0.08650  0.31217  1.0000
  N   N48       1.0  0.98469  0.28771  0.33679  1.0000
  C   C217      1.0  0.22894  0.59547  0.30049  1.0000
  C   C218      1.0  0.22841  0.60973  0.23345  1.0000
  C   C219      1.0  0.22841  0.62946  0.25623  1.0000
  H   H109      1.0  0.22812  0.60594  0.16671  1.0000
  H   H110      1.0  0.22809  0.63921  0.20521  1.0000
  C   C220      1.0  0.22926  0.57621  0.27547  1.0000
  H   H111      1.0  0.22836  0.57249  0.21050  1.0000
  C   C221      1.0  0.47602  0.63559  0.30175  1.0000
  C   C222      1.0  0.46181  0.62081  0.23471  1.0000
  C   C223      1.0  0.44204  0.60110  0.25748  1.0000
  H   H112      1.0  0.46564  0.62430  0.16797  1.0000
  H   H113      1.0  0.43233  0.59103  0.20645  1.0000
  C   C224      1.0  0.49532  0.65516  0.27674  1.0000
  H   H114      1.0  0.49911  0.65795  0.21180  1.0000
  C   C225      1.0  0.43590  0.84257  0.30137  1.0000
  C   C226      1.0  0.45079  0.84321  0.23449  1.0000
  C   C227      1.0  0.47048  0.84315  0.25747  1.0000
  H   H115      1.0  0.44740  0.84361  0.16771  1.0000
  H   H116      1.0  0.48063  0.84355  0.20654  1.0000
  C   C228      1.0  0.41637  0.84231  0.27616  1.0000
  H   H117      1.0  0.41368  0.84337  0.21119  1.0000
  C   C229      1.0  0.86495  0.45361  0.30239  1.0000
  C   C230      1.0  0.86553  0.43938  0.23537  1.0000
  C   C231      1.0  0.86549  0.41962  0.25817  1.0000
  H   H118      1.0  0.86589  0.44319  0.16863  1.0000
  H   H119      1.0  0.86585  0.40989  0.20716  1.0000
  C   C232      1.0  0.86467  0.47289  0.27735  1.0000
  H   H120      1.0  0.86566  0.47665  0.21239  1.0000
  C   C233      1.0  0.61786  0.41349  0.30364  1.0000
  C   C234      1.0  0.63213  0.42831  0.23662  1.0000
  C   C235      1.0  0.65187  0.44801  0.25942  1.0000
  H   H121      1.0  0.62835  0.42485  0.16987  1.0000
  H   H122      1.0  0.66163  0.45811  0.20839  1.0000
  C   C236      1.0  0.59860  0.39392  0.27861  1.0000
  H   H123      1.0  0.59487  0.39116  0.21365  1.0000
  C   C237      1.0  0.65797  0.20648  0.30330  1.0000
  C   C238      1.0  0.64315  0.20588  0.23641  1.0000
  C   C239      1.0  0.62345  0.20594  0.25936  1.0000
  H   H124      1.0  0.64659  0.20550  0.16964  1.0000
  H   H125      1.0  0.61335  0.20557  0.20842  1.0000
  C   C240      1.0  0.67752  0.20674  0.27811  1.0000
  H   H126      1.0  0.68026  0.20569  0.21315  1.0000
  C   C241      1.0  0.02333  0.30543  0.30254  1.0000
  C   C242      1.0  0.03989  0.31377  0.23439  1.0000
  C   C243      1.0  0.06282  0.32527  0.25534  1.0000
  H   H127      1.0  0.03541  0.31162  0.16797  1.0000
  H   H128      1.0  0.07404  0.33096  0.20343  1.0000
  C   C244      1.0  0.00070  0.29424  0.27915  1.0000
  H   H129      1.0  0.99678  0.29155  0.21436  1.0000
  C   C245      1.0  0.76604  0.72003  0.30367  1.0000
  C   C246      1.0  0.75773  0.72825  0.23554  1.0000
  C   C247      1.0  0.74622  0.73968  0.25652  1.0000
  H   H130      1.0  0.75993  0.72593  0.16912  1.0000
  H   H131      1.0  0.74057  0.74522  0.20462  1.0000
  C   C248      1.0  0.77724  0.70859  0.28025  1.0000
  H   H132      1.0  0.77999  0.70739  0.21546  1.0000
  C   C249      1.0  0.35146  0.04816  0.30294  1.0000
  C   C250      1.0  0.34330  0.03166  0.23468  1.0000
  C   C251      1.0  0.33185  0.00871  0.25547  1.0000
  H   H133      1.0  0.34569  0.03621  0.16828  1.0000
  H   H134      1.0  0.32635  0.99755  0.20349  1.0000
  C   C252      1.0  0.36292  0.07081  0.27970  1.0000
  H   H135      1.0  0.36421  0.07479  0.21493  1.0000
  C   C253      1.0  0.07055  0.74363  0.30199  1.0000
  C   C254      1.0  0.05400  0.73527  0.23398  1.0000
  C   C255      1.0  0.03107  0.72376  0.25512  1.0000
  H   H136      1.0  0.05851  0.73741  0.16752  1.0000
  H   H137      1.0  0.01986  0.71806  0.20331  1.0000
  C   C256      1.0  0.09318  0.75483  0.27840  1.0000
  H   H138      1.0  0.09712  0.75753  0.21357  1.0000
  C   C257      1.0  0.32786  0.32905  0.30314  1.0000
  C   C258      1.0  0.33625  0.32087  0.23511  1.0000
  C   C259      1.0  0.34774  0.30943  0.25623  1.0000
  H   H139      1.0  0.33415  0.32323  0.16865  1.0000
  H   H140      1.0  0.35347  0.30392  0.20441  1.0000
  C   C260      1.0  0.31668  0.34050  0.27957  1.0000
  H   H141      1.0  0.31403  0.34174  0.21474  1.0000
  C   C261      1.0  0.74243  0.00093  0.30318  1.0000
  C   C262      1.0  0.75066  0.01748  0.23504  1.0000
  C   C263      1.0  0.76209  0.04041  0.25601  1.0000
  H   H142      1.0  0.74834  0.01299  0.16861  1.0000
  H   H143      1.0  0.76764  0.05163  0.20412  1.0000
  C   C264      1.0  0.73098  0.97829  0.27977  1.0000
  H   H144      1.0  0.72976  0.97437  0.21496  1.0000
  C   C265      1.0  0.28672  0.38435  0.41053  1.0000
  C   C266      1.0  0.29623  0.37048  0.41129  1.0000
  C   C267      1.0  0.34867  0.51671  0.40525  1.0000
  C   C268      1.0  0.37022  0.53554  0.40465  1.0000
  C   C269      1.0  0.23236  0.53412  0.40687  1.0000
  C   C270      1.0  0.23509  0.51529  0.40631  1.0000
  C   C271      1.0  0.16673  0.38105  0.39987  1.0000
  C   C272      1.0  0.14335  0.36713  0.39904  1.0000
  H   H145      1.0  0.13530  0.36130  0.45902  1.0000
  H   H146      1.0  0.17490  0.38514  0.46024  1.0000
  H   H147      1.0  0.23589  0.50845  0.46623  1.0000
  H   H148      1.0  0.23104  0.54042  0.46738  1.0000
  H   H149      1.0  0.34043  0.51115  0.46521  1.0000
  H   H150      1.0  0.37707  0.54304  0.46453  1.0000
  H   H151      1.0  0.30124  0.36726  0.47143  1.0000
  H   H152      1.0  0.28530  0.39104  0.46985  1.0000
  C   C273      1.0  0.68706  0.90455  0.41120  1.0000
  C   C274      1.0  0.70091  0.92792  0.41179  1.0000
  C   C275      1.0  0.55468  0.83410  0.40593  1.0000
  C   C276      1.0  0.53585  0.83683  0.40519  1.0000
  C   C277      1.0  0.53733  0.70036  0.40810  1.0000
  C   C278      1.0  0.55615  0.72192  0.40752  1.0000
  C   C279      1.0  0.69034  0.78780  0.40109  1.0000
  C   C280      1.0  0.70427  0.77835  0.40027  1.0000
  H   H153      1.0  0.71004  0.77611  0.46026  1.0000
  H   H154      1.0  0.68620  0.79186  0.46147  1.0000
  H   H155      1.0  0.56295  0.72956  0.46745  1.0000
  H   H156      1.0  0.53098  0.69274  0.46862  1.0000
  H   H157      1.0  0.56016  0.83140  0.46594  1.0000
  H   H158      1.0  0.52828  0.83616  0.46502  1.0000
  H   H159      1.0  0.70411  0.93618  0.47188  1.0000
  H   H160      1.0  0.68031  0.89646  0.47053  1.0000
  C   C281      1.0  0.16689  0.78468  0.40935  1.0000
  C   C282      1.0  0.14352  0.77518  0.41010  1.0000
  C   C283      1.0  0.23729  0.72273  0.40410  1.0000
  C   C284      1.0  0.23453  0.70116  0.40349  1.0000
  C   C285      1.0  0.37099  0.83906  0.40702  1.0000
  C   C286      1.0  0.34942  0.83631  0.40620  1.0000
  C   C287      1.0  0.28356  0.90466  0.39938  1.0000
  C   C288      1.0  0.29303  0.92803  0.39868  1.0000
  H   H161      1.0  0.29517  0.93603  0.45870  1.0000
  H   H162      1.0  0.27943  0.89643  0.45972  1.0000
  H   H163      1.0  0.34170  0.83545  0.46605  1.0000
  H   H164      1.0  0.37851  0.84029  0.46763  1.0000
  H   H165      1.0  0.23991  0.73091  0.46410  1.0000
  H   H166      1.0  0.23515  0.69427  0.46336  1.0000
  H   H167      1.0  0.13526  0.77014  0.47025  1.0000
  H   H168      1.0  0.17497  0.78607  0.46866  1.0000
  C   C289      1.0  0.80704  0.66469  0.41158  1.0000
  C   C290      1.0  0.79754  0.67857  0.41223  1.0000
  C   C291      1.0  0.74512  0.53233  0.40711  1.0000
  C   C292      1.0  0.72357  0.51352  0.40655  1.0000
  C   C293      1.0  0.86146  0.51495  0.40864  1.0000
  C   C294      1.0  0.85873  0.53378  0.40804  1.0000
  C   C295      1.0  0.92711  0.66799  0.40059  1.0000
  C   C296      1.0  0.95049  0.68192  0.39955  1.0000
  H   H169      1.0  0.95852  0.68774  0.45946  1.0000
  H   H170      1.0  0.91892  0.66392  0.46103  1.0000
  H   H171      1.0  0.85784  0.54057  0.46794  1.0000
  H   H172      1.0  0.86269  0.50860  0.46918  1.0000
  H   H173      1.0  0.75330  0.53790  0.46708  1.0000
  H   H174      1.0  0.71666  0.50601  0.46646  1.0000
  H   H175      1.0  0.79247  0.68177  0.47233  1.0000
  H   H176      1.0  0.80840  0.65798  0.47093  1.0000
  C   C297      1.0  0.40668  0.14444  0.41172  1.0000
  C   C298      1.0  0.39281  0.12107  0.41215  1.0000
  C   C299      1.0  0.53911  0.21493  0.40764  1.0000
  C   C300      1.0  0.55793  0.21221  0.40696  1.0000
  C   C301      1.0  0.55649  0.34864  0.40988  1.0000
  C   C302      1.0  0.53766  0.32708  0.40925  1.0000
  C   C303      1.0  0.40340  0.26121  0.40154  1.0000
  C   C304      1.0  0.38947  0.27067  0.40053  1.0000
  H   H177      1.0  0.38360  0.27287  0.46045  1.0000
  H   H178      1.0  0.40744  0.25710  0.46197  1.0000
  H   H179      1.0  0.53080  0.31940  0.46914  1.0000
  H   H180      1.0  0.56278  0.35622  0.47042  1.0000
  H   H181      1.0  0.53354  0.21758  0.46764  1.0000
  H   H182      1.0  0.56542  0.21282  0.46682  1.0000
  H   H183      1.0  0.38955  0.11276  0.47217  1.0000
  H   H184      1.0  0.41333  0.15248  0.47115  1.0000
  C   C305      1.0  0.92693  0.26438  0.41068  1.0000
  C   C306      1.0  0.95031  0.27391  0.41125  1.0000
  C   C307      1.0  0.85652  0.32631  0.40602  1.0000
  C   C308      1.0  0.85924  0.34786  0.40540  1.0000
  C   C309      1.0  0.72279  0.20995  0.40896  1.0000
  C   C310      1.0  0.74435  0.21267  0.40815  1.0000
  C   C311      1.0  0.81021  0.14435  0.40067  1.0000
  C   C312      1.0  0.80076  0.12097  0.39981  1.0000
  H   H185      1.0  0.79852  0.11293  0.45978  1.0000
  H   H186      1.0  0.81427  0.15252  0.46106  1.0000
  H   H187      1.0  0.75202  0.21352  0.46798  1.0000
  H   H188      1.0  0.71520  0.20866  0.46956  1.0000
  H   H189      1.0  0.85383  0.31809  0.46601  1.0000
  H   H190      1.0  0.85858  0.35473  0.46529  1.0000
  H   H191      1.0  0.95855  0.27893  0.47132  1.0000
  H   H192      1.0  0.91883  0.26301  0.47003  1.0000
  C   C313      1.0  0.22939  0.62148  0.41424  1.0000
  C   C314      1.0  0.22940  0.60175  0.39146  1.0000
  C   C315      1.0  0.22895  0.63578  0.34720  1.0000
  H   H193      1.0  0.22982  0.59206  0.44249  1.0000
  H   H194      1.0  0.22986  0.62536  0.48097  1.0000
  C   C316      1.0  0.22928  0.65537  0.37216  1.0000
  H   H195      1.0  0.22862  0.65831  0.43718  1.0000
  C   C317      1.0  0.44991  0.61006  0.41549  1.0000
  C   C318      1.0  0.46967  0.62978  0.39272  1.0000
  C   C319      1.0  0.43566  0.59532  0.34844  1.0000
  H   H196      1.0  0.47933  0.63990  0.44375  1.0000
  H   H197      1.0  0.44599  0.60666  0.48222  1.0000
  C   C320      1.0  0.41603  0.57608  0.37339  1.0000
  H   H198      1.0  0.41303  0.57251  0.43842  1.0000
  C   C321      1.0  0.46126  0.84190  0.41537  1.0000
  C   C322      1.0  0.44157  0.84195  0.39239  1.0000
  C   C323      1.0  0.47610  0.84245  0.34848  1.0000
  H   H199      1.0  0.43137  0.84145  0.44331  1.0000
  H   H200      1.0  0.46456  0.84132  0.48212  1.0000
  C   C324      1.0  0.49532  0.84206  0.37361  1.0000
  H   H201      1.0  0.49879  0.84258  0.43867  1.0000
  C   C325      1.0  0.86435  0.42754  0.41617  1.0000
  C   C326      1.0  0.86439  0.44729  0.39337  1.0000
  C   C327      1.0  0.86485  0.41326  0.34914  1.0000
  H   H202      1.0  0.86392  0.45696  0.44438  1.0000
  H   H203      1.0  0.86382  0.42363  0.48290  1.0000
  C   C328      1.0  0.86447  0.39364  0.37411  1.0000
  H   H204      1.0  0.86501  0.39066  0.43915  1.0000
  C   C329      1.0  0.64387  0.43896  0.41741  1.0000
  C   C330      1.0  0.62414  0.41925  0.39462  1.0000
  C   C331      1.0  0.65818  0.45374  0.35038  1.0000
  H   H205      1.0  0.61443  0.40911  0.44563  1.0000
  H   H206      1.0  0.64774  0.44233  0.48414  1.0000
  C   C332      1.0  0.67779  0.47297  0.37535  1.0000
  H   H207      1.0  0.68076  0.47648  0.44038  1.0000
  C   C333      1.0  0.63252  0.20713  0.41727  1.0000
  C   C334      1.0  0.65222  0.20707  0.39432  1.0000
  C   C335      1.0  0.61774  0.20661  0.35037  1.0000
  H   H208      1.0  0.66237  0.20755  0.44525  1.0000
  H   H209      1.0  0.62916  0.20769  0.48402  1.0000
  C   C336      1.0  0.59852  0.20702  0.37548  1.0000
  H   H210      1.0  0.59501  0.20652  0.44054  1.0000
  C   C337      1.0  0.05371  0.32055  0.41381  1.0000
  C   C338      1.0  0.03078  0.30908  0.39287  1.0000
  C   C339      1.0  0.07028  0.32896  0.34567  1.0000
  H   H211      1.0  0.01956  0.30341  0.44477  1.0000
  H   H212      1.0  0.05819  0.32279  0.48023  1.0000
  C   C340      1.0  0.09291  0.34044  0.36904  1.0000
  H   H213      1.0  0.09683  0.34156  0.43380  1.0000
  C   C341      1.0  0.75084  0.73528  0.41498  1.0000
  C   C342      1.0  0.76233  0.72384  0.39401  1.0000
  C   C343      1.0  0.74248  0.74345  0.34685  1.0000
  H   H214      1.0  0.76797  0.71828  0.44590  1.0000
  H   H215      1.0  0.74857  0.73754  0.48141  1.0000
  C   C344      1.0  0.73100  0.75462  0.37024  1.0000
  H   H216      1.0  0.72986  0.75744  0.43499  1.0000
  C   C345      1.0  0.33609  0.01766  0.41400  1.0000
  C   C346      1.0  0.34756  0.04061  0.39321  1.0000
  C   C347      1.0  0.32799  0.00116  0.34575  1.0000
  H   H217      1.0  0.35307  0.05178  0.44520  1.0000
  H   H218      1.0  0.33377  0.01311  0.48040  1.0000
  C   C348      1.0  0.31680  0.97851  0.36897  1.0000
  H   H219      1.0  0.31392  0.97452  0.43370  1.0000
  C   C349      1.0  0.04012  0.72852  0.41352  1.0000
  C   C350      1.0  0.06306  0.74000  0.39237  1.0000
  C   C351      1.0  0.02358  0.72009  0.34551  1.0000
  H   H220      1.0  0.07426  0.74568  0.44418  1.0000
  H   H221      1.0  0.03562  0.72630  0.47998  1.0000
  C   C352      1.0  0.00094  0.70862  0.36909  1.0000
  H   H222      1.0  0.99700  0.70751  0.43387  1.0000
  C   C353      1.0  0.34290  0.31374  0.41464  1.0000
  C   C354      1.0  0.33144  0.32520  0.39351  1.0000
  C   C355      1.0  0.35136  0.30562  0.34662  1.0000
  H   H223      1.0  0.32573  0.33073  0.44534  1.0000
  H   H224      1.0  0.34508  0.31146  0.48109  1.0000
  C   C356      1.0  0.36281  0.29445  0.37017  1.0000
  H   H225      1.0  0.36389  0.29162  0.43495  1.0000
  C   C357      1.0  0.75769  0.03133  0.41447  1.0000
  C   C358      1.0  0.74623  0.00840  0.39351  1.0000
  C   C359      1.0  0.76586  0.04788  0.34634  1.0000
  H   H226      1.0  0.74067  0.99719  0.44540  1.0000
  H   H227      1.0  0.75993  0.03582  0.48091  1.0000
  C   C360      1.0  0.77702  0.07052  0.36974  1.0000
  H   H228      1.0  0.77985  0.07445  0.43449  1.0000
