data_image0
_chemical_formula_structural       C2NCNO2C2NCNO2NCHNCHNCHNCHC2NCNO2C2NCNO2C2NCNO2C2NCNO2NCHNCHNCHNCHC2NCNO2C2NCNO2C2NCNO2C2NCNO2C6H3C6H3C6H3C6H3C6H3C6H3C6H3C6H3C6H3C6H3C6H3C6H3NCHNCHC2NCNO2C2NCNO2C2NCNO2C2NCNO2NCHNCHNCHNCHC2NCNO2C2NCNO2C2NCNO2C2NCNO2NCHNCHNCHNCH
_chemical_formula_sum              "C144 N54 O36 H54"
_cell_length_a       34.2491
_cell_length_b       34.0908
_cell_length_c       14.8957
_cell_angle_alpha    90
_cell_angle_beta     90
_cell_angle_gamma    90.2696

_space_group_name_H-M_alt    "P 1"
_space_group_IT_number       1

loop_
  _space_group_symop_operation_xyz
  'x, y, z'

loop_
  _atom_site_type_symbol
  _atom_site_label
  _atom_site_symmetry_multiplicity
  _atom_site_fract_x
  _atom_site_fract_y
  _atom_site_fract_z
  _atom_site_occupancy
  C   C1        1.0  0.97223  0.53136  0.33106  1.0000
  C   C2        1.0  0.02863  0.47130  0.33809  1.0000
  N   N1        1.0  0.03355  0.50400  0.28706  1.0000
  C   C3        1.0  0.00738  0.53391  0.28055  1.0000
  N   N2        1.0  0.01498  0.56504  0.22068  1.0000
  O   O1        1.0  0.04649  0.58189  0.24078  1.0000
  O   O2        1.0  0.01784  0.55244  0.14175  1.0000
  C   C4        1.0  0.47223  0.97086  0.33240  1.0000
  C   C5        1.0  0.52886  0.03118  0.33924  1.0000
  N   N3        1.0  0.53367  0.99840  0.28851  1.0000
  C   C6        1.0  0.50740  0.96832  0.28222  1.0000
  N   N4        1.0  0.51486  0.93690  0.22323  1.0000
  O   O3        1.0  0.54624  0.92029  0.24405  1.0000
  O   O4        1.0  0.51796  0.94917  0.14406  1.0000
  N   N5        1.0  0.03169  0.27471  0.29257  1.0000
  C   C7        1.0  0.03696  0.31419  0.28928  1.0000
  H   H1        1.0  0.01945  0.33060  0.24861  1.0000
  N   N6        1.0  0.96859  0.72782  0.28970  1.0000
  C   C8        1.0  0.96316  0.68837  0.28611  1.0000
  H   H2        1.0  0.98048  0.67198  0.24496  1.0000
  N   N7        1.0  0.72501  0.03262  0.28992  1.0000
  C   C9        1.0  0.68575  0.03821  0.28647  1.0000
  H   H3        1.0  0.66917  0.02077  0.24561  1.0000
  N   N8        1.0  0.27572  0.97016  0.29171  1.0000
  C   C10       1.0  0.31497  0.96463  0.28780  1.0000
  H   H4        1.0  0.33144  0.98222  0.24706  1.0000
  C   C11       1.0  0.44675  0.74967  0.33885  1.0000
  C   C12       1.0  0.43207  0.83091  0.34272  1.0000
  N   N9        1.0  0.41068  0.80576  0.29158  1.0000
  C   C13       1.0  0.41641  0.76632  0.28640  1.0000
  N   N10       1.0  0.39372  0.74402  0.22589  1.0000
  O   O5        1.0  0.35807  0.74716  0.24418  1.0000
  O   O6        1.0  0.39888  0.75581  0.14689  1.0000
  C   C14       1.0  0.55363  0.25257  0.34201  1.0000
  C   C15       1.0  0.56841  0.17136  0.34579  1.0000
  N   N11       1.0  0.58958  0.19651  0.29417  1.0000
  C   C16       1.0  0.58379  0.23593  0.28896  1.0000
  N   N12       1.0  0.60621  0.25823  0.22794  1.0000
  O   O7        1.0  0.64194  0.25514  0.24554  1.0000
  O   O8        1.0  0.60077  0.24636  0.14910  1.0000
  C   C17       1.0  0.75045  0.55489  0.33596  1.0000
  C   C18       1.0  0.83181  0.56836  0.33678  1.0000
  N   N13       1.0  0.80685  0.59027  0.28689  1.0000
  C   C19       1.0  0.76745  0.58507  0.28287  1.0000
  N   N14       1.0  0.74546  0.60836  0.22338  1.0000
  O   O9        1.0  0.74963  0.64408  0.24192  1.0000
  O   O10       1.0  0.75657  0.60314  0.14396  1.0000
  C   C20       1.0  0.24998  0.44733  0.33484  1.0000
  C   C21       1.0  0.16864  0.43389  0.33673  1.0000
  N   N15       1.0  0.19345  0.41193  0.28652  1.0000
  C   C22       1.0  0.23285  0.41714  0.28199  1.0000
  N   N16       1.0  0.25477  0.39387  0.22232  1.0000
  O   O11       1.0  0.25069  0.35814  0.24092  1.0000
  O   O12       1.0  0.24351  0.39906  0.14300  1.0000
  N   N17       1.0  0.11842  0.10246  0.28549  1.0000
  C   C23       1.0  0.14274  0.07108  0.28198  1.0000
  H   H5        1.0  0.15725  0.06505  0.22369  1.0000
  N   N18       1.0  0.88151  0.89942  0.28644  1.0000
  C   C24       1.0  0.85700  0.93068  0.28316  1.0000
  H   H6        1.0  0.84186  0.93621  0.22548  1.0000
  N   N19       1.0  0.89866  0.11891  0.28355  1.0000
  C   C25       1.0  0.93092  0.14228  0.28012  1.0000
  H   H7        1.0  0.93771  0.15637  0.22159  1.0000
  N   N20       1.0  0.10236  0.88367  0.28369  1.0000
  C   C26       1.0  0.07016  0.86023  0.27955  1.0000
  H   H8        1.0  0.06362  0.84608  0.22095  1.0000
  C   C27       1.0  0.40613  0.61029  0.32236  1.0000
  C   C28       1.0  0.35896  0.54332  0.32544  1.0000
  N   N21       1.0  0.38242  0.55185  0.25452  1.0000
  C   C29       1.0  0.40508  0.58456  0.24743  1.0000
  N   N22       1.0  0.42903  0.59082  0.17108  1.0000
  O   O13       1.0  0.43135  0.56164  0.11968  1.0000
  O   O14       1.0  0.41479  0.61820  0.12539  1.0000
  C   C30       1.0  0.59417  0.39193  0.32440  1.0000
  C   C31       1.0  0.64146  0.45882  0.32691  1.0000
  N   N23       1.0  0.61769  0.45039  0.25649  1.0000
  C   C32       1.0  0.59496  0.41773  0.24962  1.0000
  N   N24       1.0  0.57064  0.41166  0.17382  1.0000
  O   O15       1.0  0.56802  0.44098  0.12292  1.0000
  O   O16       1.0  0.58465  0.38441  0.12737  1.0000
  C   C33       1.0  0.61215  0.59771  0.32230  1.0000
  C   C34       1.0  0.54436  0.64293  0.32592  1.0000
  N   N25       1.0  0.55359  0.62008  0.25444  1.0000
  C   C35       1.0  0.58669  0.59844  0.24707  1.0000
  N   N26       1.0  0.59342  0.57466  0.17058  1.0000
  O   O17       1.0  0.56445  0.57152  0.11909  1.0000
  O   O18       1.0  0.62042  0.58978  0.12508  1.0000
  C   C36       1.0  0.38824  0.40435  0.32331  1.0000
  C   C37       1.0  0.45596  0.35913  0.32861  1.0000
  N   N27       1.0  0.44666  0.38129  0.25603  1.0000
  C   C38       1.0  0.41356  0.40290  0.24789  1.0000
  N   N28       1.0  0.40666  0.42591  0.17025  1.0000
  O   O19       1.0  0.43546  0.42835  0.11807  1.0000
  O   O20       1.0  0.37945  0.41043  0.12606  1.0000
  C   C39       1.0  0.07727  0.37200  0.33813  1.0000
  C   C40       1.0  0.11689  0.38388  0.33834  1.0000
  C   C41       1.0  0.12814  0.42385  0.33828  1.0000
  C   C42       1.0  0.09829  0.45244  0.33848  1.0000
  C   C43       1.0  0.05817  0.44189  0.33902  1.0000
  C   C44       1.0  0.04834  0.40147  0.33834  1.0000
  H   H9        1.0  0.10593  0.48151  0.33778  1.0000
  H   H10       1.0  0.01956  0.39327  0.33805  1.0000
  H   H11       1.0  0.13812  0.36280  0.33827  1.0000
  C   C45       1.0  0.92288  0.63056  0.33486  1.0000
  C   C46       1.0  0.88335  0.61853  0.33633  1.0000
  C   C47       1.0  0.87230  0.57850  0.33737  1.0000
  C   C48       1.0  0.90228  0.55002  0.33662  1.0000
  C   C49       1.0  0.94238  0.56068  0.33277  1.0000
  C   C50       1.0  0.95186  0.60120  0.33365  1.0000
  H   H12       1.0  0.89471  0.52095  0.33479  1.0000
  H   H13       1.0  0.98049  0.60964  0.33765  1.0000
  H   H14       1.0  0.86205  0.63954  0.33707  1.0000
  C   C51       1.0  0.62865  0.07918  0.33608  1.0000
  C   C52       1.0  0.61758  0.11907  0.34102  1.0000
  C   C53       1.0  0.57805  0.13073  0.34528  1.0000
  C   C54       1.0  0.54903  0.10109  0.34596  1.0000
  C   C55       1.0  0.55859  0.06076  0.34027  1.0000
  C   C56       1.0  0.59861  0.05051  0.33406  1.0000
  H   H15       1.0  0.52031  0.10918  0.34575  1.0000
  H   H16       1.0  0.60610  0.02149  0.33260  1.0000
  H   H17       1.0  0.63890  0.14026  0.34139  1.0000
  C   C57       1.0  0.37216  0.92338  0.33540  1.0000
  C   C58       1.0  0.38308  0.88342  0.33890  1.0000
  C   C59       1.0  0.42257  0.87159  0.34187  1.0000
  C   C60       1.0  0.45169  0.90111  0.34101  1.0000
  C   C61       1.0  0.44233  0.94144  0.33416  1.0000
  C   C62       1.0  0.40231  0.95194  0.33249  1.0000
  H   H18       1.0  0.48033  0.89296  0.34472  1.0000
  H   H19       1.0  0.39498  0.98100  0.33009  1.0000
  H   H20       1.0  0.36168  0.86231  0.34002  1.0000
  C   C63       1.0  0.06615  0.13976  0.34891  1.0000
  C   C64       1.0  0.02663  0.12799  0.35161  1.0000
  C   C65       1.0  0.99610  0.15555  0.34668  1.0000
  C   C66       1.0  0.00560  0.19581  0.34074  1.0000
  C   C67       1.0  0.04505  0.20880  0.34073  1.0000
  C   C68       1.0  0.07494  0.18007  0.34119  1.0000
  H   H21       1.0  0.98343  0.21588  0.34131  1.0000
  H   H22       1.0  0.10362  0.18845  0.33804  1.0000
  H   H23       1.0  0.01998  0.09869  0.35637  1.0000
  C   C69       1.0  0.93477  0.86279  0.34779  1.0000
  C   C70       1.0  0.97434  0.87438  0.35006  1.0000
  C   C71       1.0  0.00479  0.84673  0.34513  1.0000
  C   C72       1.0  0.99513  0.80651  0.33902  1.0000
  C   C73       1.0  0.95562  0.79368  0.33883  1.0000
  C   C74       1.0  0.92583  0.82251  0.33972  1.0000
  H   H24       1.0  0.01722  0.78635  0.33943  1.0000
  H   H25       1.0  0.89712  0.81424  0.33674  1.0000
  H   H26       1.0  0.98112  0.90366  0.35484  1.0000
  C   C75       1.0  0.85983  0.06735  0.34670  1.0000
  C   C76       1.0  0.87130  0.02774  0.34945  1.0000
  C   C77       1.0  0.84378  0.99687  0.34590  1.0000
  C   C78       1.0  0.80371  0.00621  0.33952  1.0000
  C   C79       1.0  0.79096  0.04582  0.33847  1.0000
  C   C80       1.0  0.81974  0.07599  0.33879  1.0000
  H   H27       1.0  0.78363  0.98387  0.34064  1.0000
  H   H28       1.0  0.81159  0.10477  0.33549  1.0000
  H   H29       1.0  0.90047  0.02127  0.35422  1.0000
  C   C81       1.0  0.14093  0.93524  0.34789  1.0000
  C   C82       1.0  0.12947  0.97488  0.35066  1.0000
  C   C83       1.0  0.15704  0.00569  0.34711  1.0000
  C   C84       1.0  0.19711  0.99634  0.34114  1.0000
  C   C85       1.0  0.20985  0.95673  0.34022  1.0000
  C   C86       1.0  0.18103  0.92658  0.34031  1.0000
  H   H30       1.0  0.21719  0.01868  0.34217  1.0000
  H   H31       1.0  0.18917  0.89780  0.33680  1.0000
  H   H32       1.0  0.10031  0.98141  0.35518  1.0000
  C   C87       1.0  0.43546  0.63950  0.33155  1.0000
  C   C88       1.0  0.47504  0.62837  0.32859  1.0000
  C   C89       1.0  0.50544  0.65638  0.33308  1.0000
  C   C90       1.0  0.49568  0.69650  0.33936  1.0000
  C   C91       1.0  0.45612  0.70885  0.34008  1.0000
  C   C92       1.0  0.42642  0.67964  0.33979  1.0000
  H   H33       1.0  0.51770  0.71693  0.33866  1.0000
  H   H34       1.0  0.39770  0.68754  0.34325  1.0000
  H   H35       1.0  0.48183  0.59917  0.32366  1.0000
  C   C93       1.0  0.56485  0.36273  0.33414  1.0000
  C   C94       1.0  0.52525  0.37382  0.33132  1.0000
  C   C95       1.0  0.49489  0.34578  0.33602  1.0000
  C   C96       1.0  0.50467  0.30567  0.34262  1.0000
  C   C97       1.0  0.54424  0.29337  0.34321  1.0000
  C   C98       1.0  0.57392  0.32260  0.34258  1.0000
  H   H36       1.0  0.48268  0.28522  0.34184  1.0000
  H   H37       1.0  0.60266  0.31470  0.34581  1.0000
  H   H38       1.0  0.51840  0.40300  0.32615  1.0000
  C   C99       1.0  0.64085  0.56814  0.33221  1.0000
  C   C100      1.0  0.62883  0.52856  0.33057  1.0000
  C   C101      1.0  0.65597  0.49761  0.33417  1.0000
  C   C102      1.0  0.69618  0.50677  0.33918  1.0000
  C   C103      1.0  0.70950  0.54630  0.33889  1.0000
  C   C104      1.0  0.68111  0.57661  0.33880  1.0000
  H   H39       1.0  0.71592  0.48432  0.33767  1.0000
  H   H40       1.0  0.68967  0.60535  0.34127  1.0000
  H   H41       1.0  0.59957  0.52215  0.32652  1.0000
  C   C105      1.0  0.35955  0.43400  0.33177  1.0000
  C   C106      1.0  0.37162  0.47356  0.32952  1.0000
  C   C107      1.0  0.34449  0.50452  0.33259  1.0000
  C   C108      1.0  0.30427  0.49540  0.33734  1.0000
  C   C109      1.0  0.29092  0.45588  0.33745  1.0000
  C   C110      1.0  0.31927  0.42556  0.33797  1.0000
  H   H42       1.0  0.28454  0.51788  0.33568  1.0000
  H   H43       1.0  0.31067  0.39683  0.34087  1.0000
  H   H44       1.0  0.40089  0.47994  0.32569  1.0000
  N   N29       1.0  0.96712  0.49830  0.38124  1.0000
  C   C111      1.0  0.99321  0.46853  0.38629  1.0000
  H   H45       1.0  0.98718  0.44516  0.42697  1.0000
  N   N30       1.0  0.46720  0.00387  0.38252  1.0000
  C   C112      1.0  0.49346  0.03372  0.38759  1.0000
  H   H46       1.0  0.48749  0.05701  0.42835  1.0000
  C   C113      1.0  0.05399  0.24979  0.34227  1.0000
  C   C114      1.0  0.06767  0.33130  0.33910  1.0000
  N   N31       1.0  0.08939  0.30654  0.39001  1.0000
  C   C115      1.0  0.08408  0.26699  0.39502  1.0000
  N   N32       1.0  0.10702  0.24508  0.45533  1.0000
  O   O21       1.0  0.14263  0.24898  0.43701  1.0000
  O   O22       1.0  0.10175  0.25668  0.53440  1.0000
  C   C116      1.0  0.94651  0.75272  0.33998  1.0000
  C   C117      1.0  0.93249  0.67127  0.33614  1.0000
  N   N33       1.0  0.91098  0.69600  0.38754  1.0000
  C   C118      1.0  0.91647  0.73552  0.39289  1.0000
  N   N34       1.0  0.89379  0.75741  0.45376  1.0000
  O   O23       1.0  0.85811  0.75369  0.43590  1.0000
  O   O24       1.0  0.89922  0.74560  0.53261  1.0000
  C   C119      1.0  0.75018  0.05477  0.33991  1.0000
  C   C120      1.0  0.66909  0.06916  0.33621  1.0000
  N   N35       1.0  0.69413  0.09057  0.38757  1.0000
  C   C121      1.0  0.73340  0.08497  0.39286  1.0000
  N   N36       1.0  0.75547  0.10774  0.45366  1.0000
  O   O25       1.0  0.75213  0.14359  0.43582  1.0000
  O   O26       1.0  0.74372  0.10230  0.53256  1.0000
  C   C122      1.0  0.25064  0.94781  0.34146  1.0000
  C   C123      1.0  0.33174  0.93352  0.33679  1.0000
  N   N37       1.0  0.30679  0.91187  0.38789  1.0000
  C   C124      1.0  0.26752  0.91742  0.39365  1.0000
  N   N38       1.0  0.24555  0.89433  0.45401  1.0000
  O   O27       1.0  0.24889  0.85858  0.43525  1.0000
  O   O28       1.0  0.25738  0.89940  0.53297  1.0000
  N   N39       1.0  0.46877  0.77499  0.38870  1.0000
  C   C125      1.0  0.46300  0.81435  0.39233  1.0000
  H   H47       1.0  0.48045  0.83107  0.43280  1.0000
  N   N40       1.0  0.53183  0.22727  0.39240  1.0000
  C   C126      1.0  0.53765  0.18791  0.39597  1.0000
  H   H48       1.0  0.52044  0.17119  0.43698  1.0000
  N   N41       1.0  0.77556  0.53228  0.38448  1.0000
  C   C127      1.0  0.81496  0.53737  0.38648  1.0000
  H   H49       1.0  0.83148  0.51971  0.42657  1.0000
  N   N42       1.0  0.22503  0.46994  0.38372  1.0000
  C   C128      1.0  0.18565  0.46485  0.38627  1.0000
  H   H50       1.0  0.16926  0.48253  0.42659  1.0000
  C   C129      1.0  0.09566  0.11099  0.35780  1.0000
  C   C130      1.0  0.14305  0.04454  0.35457  1.0000
  N   N43       1.0  0.11992  0.05310  0.42594  1.0000
  C   C131      1.0  0.09722  0.08557  0.43317  1.0000
  N   N44       1.0  0.07358  0.09176  0.50996  1.0000
  O   O29       1.0  0.07165  0.06273  0.56196  1.0000
  O   O30       1.0  0.08787  0.11950  0.55481  1.0000
  C   C132      1.0  0.90536  0.89167  0.35736  1.0000
  C   C133      1.0  0.85786  0.95806  0.35410  1.0000
  N   N45       1.0  0.88193  0.95015  0.42422  1.0000
  C   C134      1.0  0.90474  0.91779  0.43154  1.0000
  N   N46       1.0  0.92943  0.91246  0.50691  1.0000
  O   O31       1.0  0.93243  0.94219  0.55650  1.0000
  O   O32       1.0  0.91557  0.88548  0.55482  1.0000
  C   C135      1.0  0.88889  0.09683  0.35639  1.0000
  C   C136      1.0  0.95720  0.14170  0.35296  1.0000
  N   N47       1.0  0.94747  0.11929  0.42494  1.0000
  C   C137      1.0  0.91406  0.09781  0.43215  1.0000
  N   N48       1.0  0.90660  0.07459  0.50930  1.0000
  O   O33       1.0  0.93516  0.07195  0.56204  1.0000
  O   O34       1.0  0.87939  0.09000  0.55318  1.0000
  C   C138      1.0  0.11186  0.90575  0.35675  1.0000
  C   C139      1.0  0.04370  0.86047  0.35206  1.0000
  N   N49       1.0  0.05316  0.88293  0.42420  1.0000
  C   C140      1.0  0.08643  0.90459  0.43203  1.0000
  N   N50       1.0  0.09351  0.92778  0.50940  1.0000
  O   O35       1.0  0.06471  0.93038  0.56145  1.0000
  O   O36       1.0  0.12054  0.91238  0.55389  1.0000
  N   N51       1.0  0.38290  0.60181  0.39405  1.0000
  C   C141      1.0  0.35863  0.57016  0.39742  1.0000
  H   H51       1.0  0.34366  0.56424  0.45523  1.0000
  N   N52       1.0  0.61779  0.40023  0.39554  1.0000
  C   C142      1.0  0.64223  0.43177  0.39849  1.0000
  H   H52       1.0  0.65727  0.43769  0.45618  1.0000
  N   N53       1.0  0.60289  0.62020  0.39473  1.0000
  C   C143      1.0  0.57093  0.64372  0.39822  1.0000
  H   H53       1.0  0.56450  0.65801  0.45662  1.0000
  N   N54       1.0  0.39762  0.38263  0.39686  1.0000
  C   C144      1.0  0.42960  0.35921  0.40132  1.0000
  H   H54       1.0  0.43613  0.34538  0.46026  1.0000
