data_image0
_chemical_formula_structural       C4OHOHC4OHOHC2O2H2C2O2H2C2O2H2C2O2H2C4OHOHC4OHOHC4OHOHC4OHOHC2O2H2C2O2H2C2O2H2C2O2H2C4OHOHC4OHOHC4OHOHC4OHOHCNCNCNCNCNCNCNCNCNCNCNCNCNCNCNCNCNCNCNCNCNCNCNCNCNCNCNCNCNCNCNCNCNCNCNCNC2O2H2C2O2H2C4OHOHC4OHOHC4OHOHC4OHOHC2O2H2C2O2H2C2O2H2C2O2H2C4OHOHC4OHOHC4OHOHC4OHOHC2O2H2C2O2H2C2O2H2C2O2H2
_chemical_formula_sum              "C144 O72 H72 N36"
_cell_length_a       34.1304
_cell_length_b       33.9692
_cell_length_c       14.9209
_cell_angle_alpha    90
_cell_angle_beta     90
_cell_angle_gamma    90.2786

_space_group_name_H-M_alt    "P 1"
_space_group_IT_number       1

loop_
  _space_group_symop_operation_xyz
  'x, y, z'

loop_
  _atom_site_type_symbol
  _atom_site_label
  _atom_site_symmetry_multiplicity
  _atom_site_fract_x
  _atom_site_fract_y
  _atom_site_fract_z
  _atom_site_occupancy
  C   C1        1.0  0.03087  0.47028  0.33700  1.0000
  C   C2        1.0  0.99343  0.46303  0.29857  1.0000
  C   C3        1.0  0.96384  0.49216  0.29855  1.0000
  C   C4        1.0  0.97035  0.52988  0.33689  1.0000
  O   O1        1.0  0.92972  0.48381  0.25490  1.0000
  H   H1        1.0  0.91449  0.46666  0.29522  1.0000
  O   O2        1.0  0.98564  0.42863  0.25492  1.0000
  H   H2        1.0  0.96951  0.41273  0.29607  1.0000
  C   C5        1.0  0.53069  0.03097  0.33917  1.0000
  C   C6        1.0  0.49400  0.03743  0.29677  1.0000
  C   C7        1.0  0.46379  0.00872  0.29946  1.0000
  C   C8        1.0  0.46945  0.97185  0.34227  1.0000
  O   O3        1.0  0.43010  0.01625  0.25362  1.0000
  H   H3        1.0  0.41523  0.03503  0.29036  1.0000
  O   O4        1.0  0.48666  0.07134  0.25094  1.0000
  H   H4        1.0  0.49721  0.06749  0.19021  1.0000
  C   C9        1.0  0.03752  0.31663  0.28948  1.0000
  C   C10       1.0  0.02875  0.27579  0.28891  1.0000
  O   O5        1.0  0.01678  0.34074  0.23419  1.0000
  O   O6        1.0  0.99972  0.26258  0.23360  1.0000
  H   H5        1.0  0.99063  0.34348  0.26110  1.0000
  H   H6        1.0  0.97493  0.26650  0.26603  1.0000
  C   C11       1.0  0.96490  0.68289  0.29379  1.0000
  C   C12       1.0  0.97362  0.72373  0.29248  1.0000
  O   O7        1.0  0.98797  0.65844  0.24443  1.0000
  O   O8        1.0  0.00455  0.73626  0.24197  1.0000
  H   H7        1.0  0.01079  0.65227  0.28214  1.0000
  H   H8        1.0  0.02818  0.73209  0.27851  1.0000
  C   C13       1.0  0.69727  0.09212  0.28509  1.0000
  C   C14       1.0  0.73767  0.08309  0.28614  1.0000
  O   O9        1.0  0.68621  0.12472  0.23845  1.0000
  O   O10       1.0  0.76244  0.10783  0.24134  1.0000
  H   H9        1.0  0.67791  0.11539  0.17892  1.0000
  H   H10       1.0  0.76699  0.09576  0.18232  1.0000
  C   C15       1.0  0.31640  0.96603  0.29774  1.0000
  C   C16       1.0  0.27571  0.97408  0.29552  1.0000
  O   O11       1.0  0.34087  0.98969  0.24941  1.0000
  O   O12       1.0  0.26359  0.00613  0.24815  1.0000
  H   H11       1.0  0.34346  0.01437  0.28348  1.0000
  H   H12       1.0  0.25619  0.99640  0.18836  1.0000
  C   C17       1.0  0.45233  0.75050  0.34347  1.0000
  C   C18       1.0  0.47675  0.77918  0.30187  1.0000
  C   C19       1.0  0.46750  0.81974  0.30507  1.0000
  C   C20       1.0  0.43273  0.83308  0.34727  1.0000
  O   O13       1.0  0.49116  0.84520  0.25929  1.0000
  H   H13       1.0  0.51338  0.85114  0.29917  1.0000
  O   O14       1.0  0.50949  0.76869  0.25541  1.0000
  H   H14       1.0  0.50075  0.76235  0.19422  1.0000
  C   C21       1.0  0.54970  0.25188  0.33368  1.0000
  C   C22       1.0  0.58326  0.23766  0.28782  1.0000
  C   C23       1.0  0.59274  0.19722  0.28806  1.0000
  C   C24       1.0  0.56912  0.16927  0.33417  1.0000
  O   O15       1.0  0.62506  0.18616  0.24084  1.0000
  H   H15       1.0  0.61561  0.17782  0.18144  1.0000
  O   O16       1.0  0.60730  0.26222  0.24045  1.0000
  H   H16       1.0  0.59521  0.26531  0.18099  1.0000
  C   C25       1.0  0.74894  0.54884  0.34167  1.0000
  C   C26       1.0  0.77638  0.52451  0.29666  1.0000
  C   C27       1.0  0.81708  0.53274  0.29979  1.0000
  C   C28       1.0  0.83168  0.56646  0.34516  1.0000
  O   O17       1.0  0.84154  0.50965  0.25057  1.0000
  H   H17       1.0  0.84345  0.48444  0.28271  1.0000
  O   O18       1.0  0.76443  0.49308  0.24657  1.0000
  H   H18       1.0  0.75824  0.50347  0.18666  1.0000
  C   C29       1.0  0.25187  0.45292  0.34478  1.0000
  C   C30       1.0  0.22372  0.47827  0.30532  1.0000
  C   C31       1.0  0.18335  0.46842  0.30498  1.0000
  C   C32       1.0  0.16936  0.43336  0.34613  1.0000
  O   O19       1.0  0.15851  0.49337  0.26175  1.0000
  H   H19       1.0  0.15594  0.48333  0.20015  1.0000
  O   O20       1.0  0.23502  0.51110  0.25931  1.0000
  H   H20       1.0  0.23125  0.53344  0.30035  1.0000
  C   C33       1.0  0.12252  0.10655  0.29750  1.0000
  C   C34       1.0  0.14581  0.07212  0.29799  1.0000
  O   O21       1.0  0.12544  0.13159  0.22651  1.0000
  O   O22       1.0  0.17012  0.06532  0.22734  1.0000
  H   H21       1.0  0.14556  0.15112  0.24303  1.0000
  H   H22       1.0  0.19576  0.07627  0.24459  1.0000
  C   C35       1.0  0.87882  0.89493  0.29265  1.0000
  C   C36       1.0  0.85640  0.92994  0.29346  1.0000
  O   O23       1.0  0.87594  0.87042  0.22070  1.0000
  O   O24       1.0  0.83155  0.93703  0.22386  1.0000
  H   H23       1.0  0.85542  0.85112  0.23590  1.0000
  H   H24       1.0  0.84705  0.95078  0.17776  1.0000
  C   C37       1.0  0.89448  0.12227  0.29244  1.0000
  C   C38       1.0  0.92934  0.14512  0.29165  1.0000
  O   O25       1.0  0.87099  0.12271  0.21867  1.0000
  O   O26       1.0  0.93795  0.16674  0.21728  1.0000
  H   H25       1.0  0.85109  0.14293  0.23024  1.0000
  H   H26       1.0  0.92741  0.19318  0.22850  1.0000
  C   C39       1.0  0.10559  0.87873  0.28946  1.0000
  C   C40       1.0  0.07100  0.85549  0.28899  1.0000
  O   O27       1.0  0.12938  0.87797  0.21622  1.0000
  O   O28       1.0  0.06279  0.83329  0.21529  1.0000
  H   H27       1.0  0.14922  0.85780  0.22864  1.0000
  H   H28       1.0  0.07356  0.80703  0.22759  1.0000
  C   C41       1.0  0.36244  0.54417  0.31090  1.0000
  C   C42       1.0  0.38930  0.55159  0.24029  1.0000
  C   C43       1.0  0.41254  0.58596  0.24015  1.0000
  C   C44       1.0  0.40954  0.61382  0.31059  1.0000
  O   O29       1.0  0.43957  0.59008  0.17341  1.0000
  H   H29       1.0  0.42884  0.60958  0.13141  1.0000
  O   O30       1.0  0.39542  0.52480  0.17367  1.0000
  H   H30       1.0  0.37332  0.52751  0.13182  1.0000
  C   C45       1.0  0.63807  0.45839  0.30989  1.0000
  C   C46       1.0  0.61100  0.45091  0.23972  1.0000
  C   C47       1.0  0.58755  0.41671  0.24055  1.0000
  C   C48       1.0  0.59064  0.38910  0.31145  1.0000
  O   O31       1.0  0.56035  0.41242  0.17421  1.0000
  H   H31       1.0  0.57100  0.39284  0.13229  1.0000
  O   O32       1.0  0.60489  0.47749  0.17268  1.0000
  H   H32       1.0  0.62691  0.47455  0.13070  1.0000
  C   C49       1.0  0.54546  0.64236  0.31027  1.0000
  C   C50       1.0  0.55362  0.61690  0.23735  1.0000
  C   C51       1.0  0.58772  0.59375  0.23698  1.0000
  C   C52       1.0  0.61455  0.59552  0.30946  1.0000
  O   O33       1.0  0.59241  0.56764  0.16837  1.0000
  H   H33       1.0  0.61255  0.57898  0.12878  1.0000
  O   O34       1.0  0.52754  0.61170  0.16902  1.0000
  H   H34       1.0  0.53039  0.63479  0.12972  1.0000
  C   C53       1.0  0.45512  0.35941  0.31116  1.0000
  C   C54       1.0  0.44683  0.38483  0.23826  1.0000
  C   C55       1.0  0.41295  0.40833  0.23864  1.0000
  C   C56       1.0  0.38649  0.40694  0.31184  1.0000
  O   O35       1.0  0.40814  0.43437  0.16995  1.0000
  H   H35       1.0  0.38784  0.42303  0.13074  1.0000
  O   O36       1.0  0.47266  0.38972  0.16935  1.0000
  H   H36       1.0  0.46952  0.36656  0.13038  1.0000
  C   C57       1.0  0.12865  0.42279  0.34344  1.0000
  N   N1        1.0  0.09958  0.45009  0.34086  1.0000
  C   C58       1.0  0.06074  0.44057  0.33773  1.0000
  N   N2        1.0  0.05161  0.40144  0.33736  1.0000
  C   C59       1.0  0.07922  0.37268  0.33954  1.0000
  N   N3        1.0  0.11732  0.38439  0.34239  1.0000
  C   C60       1.0  0.87238  0.57681  0.34246  1.0000
  N   N4        1.0  0.90147  0.54951  0.34033  1.0000
  C   C61       1.0  0.94027  0.55932  0.33736  1.0000
  N   N5        1.0  0.94923  0.59846  0.33677  1.0000
  C   C62       1.0  0.92157  0.62717  0.33875  1.0000
  N   N6        1.0  0.88353  0.61525  0.34128  1.0000
  C   C63       1.0  0.57949  0.12846  0.33565  1.0000
  N   N7        1.0  0.55189  0.09946  0.33775  1.0000
  C   C64       1.0  0.56088  0.06045  0.33781  1.0000
  N   N8        1.0  0.59962  0.05095  0.33543  1.0000
  C   C65       1.0  0.62875  0.07851  0.33310  1.0000
  N   N9        1.0  0.61758  0.11690  0.33345  1.0000
  C   C66       1.0  0.42190  0.87375  0.34565  1.0000
  N   N10       1.0  0.44902  0.90320  0.34442  1.0000
  C   C67       1.0  0.43951  0.94208  0.34263  1.0000
  N   N11       1.0  0.40061  0.95101  0.34183  1.0000
  C   C68       1.0  0.37194  0.92296  0.34285  1.0000
  N   N12       1.0  0.38367  0.88474  0.34450  1.0000
  C   C69       1.0  0.99588  0.15603  0.35195  1.0000
  N   N13       1.0  0.00477  0.19490  0.34365  1.0000
  C   C70       1.0  0.04272  0.20769  0.33962  1.0000
  N   N14       1.0  0.07186  0.18036  0.34477  1.0000
  C   C71       1.0  0.06382  0.14133  0.35327  1.0000
  N   N15       1.0  0.02575  0.13003  0.35724  1.0000
  C   C72       1.0  0.00447  0.84440  0.34876  1.0000
  N   N16       1.0  0.99572  0.80548  0.34101  1.0000
  C   C73       1.0  0.95784  0.79247  0.33663  1.0000
  N   N17       1.0  0.92864  0.81982  0.34100  1.0000
  C   C74       1.0  0.93655  0.85888  0.34910  1.0000
  N   N18       1.0  0.97454  0.87030  0.35332  1.0000
  C   C75       1.0  0.84566  0.99659  0.35478  1.0000
  N   N19       1.0  0.80690  0.00418  0.34347  1.0000
  C   C76       1.0  0.79300  0.04177  0.33815  1.0000
  N   N20       1.0  0.81943  0.07203  0.34389  1.0000
  C   C77       1.0  0.85836  0.06537  0.35474  1.0000
  N   N21       1.0  0.87060  0.02761  0.36006  1.0000
  C   C78       1.0  0.15555  0.00442  0.35443  1.0000
  N   N22       1.0  0.19438  0.99613  0.34681  1.0000
  C   C79       1.0  0.20741  0.95821  0.34122  1.0000
  N   N23       1.0  0.18025  0.92856  0.34350  1.0000
  C   C80       1.0  0.14137  0.93597  0.35102  1.0000
  N   N24       1.0  0.12987  0.97393  0.35678  1.0000
  C   C81       1.0  0.50711  0.65756  0.32009  1.0000
  N   N25       1.0  0.49876  0.69629  0.33184  1.0000
  C   C82       1.0  0.46103  0.70938  0.33762  1.0000
  N   N26       1.0  0.43157  0.68214  0.33127  1.0000
  C   C83       1.0  0.43895  0.64319  0.31976  1.0000
  N   N27       1.0  0.47682  0.63182  0.31422  1.0000
  C   C84       1.0  0.49355  0.34434  0.32054  1.0000
  N   N28       1.0  0.50239  0.30548  0.32832  1.0000
  C   C85       1.0  0.54034  0.29291  0.33285  1.0000
  N   N29       1.0  0.56940  0.32065  0.32901  1.0000
  C   C86       1.0  0.56147  0.35960  0.32094  1.0000
  N   N30       1.0  0.52348  0.37057  0.31642  1.0000
  C   C87       1.0  0.65458  0.49656  0.31862  1.0000
  N   N31       1.0  0.69342  0.50389  0.33005  1.0000
  C   C88       1.0  0.70778  0.54142  0.33576  1.0000
  N   N32       1.0  0.68185  0.57185  0.32986  1.0000
  C   C89       1.0  0.64284  0.56539  0.31865  1.0000
  N   N33       1.0  0.63010  0.52769  0.31316  1.0000
  C   C90       1.0  0.34616  0.50590  0.32044  1.0000
  N   N34       1.0  0.30735  0.49836  0.33232  1.0000
  C   C91       1.0  0.29307  0.46081  0.33851  1.0000
  N   N35       1.0  0.31924  0.43059  0.33247  1.0000
  C   C92       1.0  0.35822  0.43711  0.32100  1.0000
  N   N36       1.0  0.37078  0.47486  0.31501  1.0000
  C   C93       1.0  0.00770  0.53709  0.37588  1.0000
  C   C94       1.0  0.03726  0.50797  0.37597  1.0000
  O   O37       1.0  0.01631  0.57215  0.41604  1.0000
  O   O38       1.0  0.07193  0.51740  0.41623  1.0000
  H   H37       1.0  0.00660  0.57013  0.47799  1.0000
  H   H38       1.0  0.07000  0.50782  0.47833  1.0000
  C   C95       1.0  0.50608  0.96551  0.38509  1.0000
  C   C96       1.0  0.53631  0.99419  0.38229  1.0000
  O   O39       1.0  0.51344  0.93170  0.43131  1.0000
  O   O40       1.0  0.56998  0.98677  0.42830  1.0000
  H   H39       1.0  0.50269  0.93559  0.49184  1.0000
  H   H40       1.0  0.58432  0.96695  0.39332  1.0000
  C   C97       1.0  0.05161  0.24879  0.33887  1.0000
  C   C98       1.0  0.08276  0.26407  0.39166  1.0000
  C   C99       1.0  0.09135  0.30479  0.39257  1.0000
  C   C100      1.0  0.06930  0.33175  0.34046  1.0000
  O   O41       1.0  0.12108  0.31714  0.44687  1.0000
  H   H41       1.0  0.10876  0.32627  0.50271  1.0000
  O   O42       1.0  0.10502  0.24023  0.44454  1.0000
  H   H42       1.0  0.09057  0.23709  0.50120  1.0000
  C   C101      1.0  0.94907  0.75127  0.33650  1.0000
  C   C102      1.0  0.91624  0.73638  0.38441  1.0000
  C   C103      1.0  0.90764  0.69567  0.38587  1.0000
  C   C104      1.0  0.93140  0.66817  0.33942  1.0000
  O   O43       1.0  0.87605  0.68396  0.43517  1.0000
  H   H43       1.0  0.88630  0.67596  0.49404  1.0000
  O   O44       1.0  0.89217  0.76054  0.43212  1.0000
  H   H44       1.0  0.90462  0.76418  0.49107  1.0000
  C   C105      1.0  0.75188  0.04952  0.33230  1.0000
  C   C106      1.0  0.72394  0.02470  0.37494  1.0000
  C   C107      1.0  0.68348  0.03382  0.37397  1.0000
  C   C108      1.0  0.66939  0.06811  0.33044  1.0000
  O   O45       1.0  0.65879  0.01059  0.42279  1.0000
  H   H45       1.0  0.65503  0.98632  0.38776  1.0000
  O   O46       1.0  0.73554  0.99333  0.42527  1.0000
  H   H46       1.0  0.73241  0.96993  0.38699  1.0000
  C   C109      1.0  0.24835  0.94945  0.34051  1.0000
  C   C110      1.0  0.26309  0.91609  0.38662  1.0000
  C   C111      1.0  0.30369  0.90820  0.38914  1.0000
  C   C112      1.0  0.33110  0.93244  0.34307  1.0000
  O   O47       1.0  0.31539  0.87671  0.43889  1.0000
  H   H47       1.0  0.32312  0.88722  0.49778  1.0000
  O   O48       1.0  0.23895  0.89255  0.43634  1.0000
  H   H48       1.0  0.23415  0.86873  0.40031  1.0000
  C   C113      1.0  0.40880  0.80449  0.39053  1.0000
  C   C114      1.0  0.41801  0.76396  0.38738  1.0000
  O   O49       1.0  0.37609  0.81497  0.43696  1.0000
  O   O50       1.0  0.39439  0.73839  0.43304  1.0000
  H   H49       1.0  0.38504  0.82263  0.49720  1.0000
  H   H50       1.0  0.37112  0.73402  0.39526  1.0000
  C   C115      1.0  0.53493  0.18330  0.37780  1.0000
  C   C116      1.0  0.52537  0.22386  0.37747  1.0000
  O   O51       1.0  0.51190  0.15850  0.42694  1.0000
  O   O52       1.0  0.49378  0.23574  0.42625  1.0000
  H   H51       1.0  0.48938  0.15165  0.38869  1.0000
  H   H52       1.0  0.47059  0.23094  0.38851  1.0000
  C   C117      1.0  0.80424  0.59031  0.39164  1.0000
  C   C118      1.0  0.76369  0.58169  0.38996  1.0000
  O   O53       1.0  0.81587  0.62223  0.44029  1.0000
  O   O54       1.0  0.73931  0.60606  0.43623  1.0000
  H   H53       1.0  0.82431  0.61210  0.49896  1.0000
  H   H54       1.0  0.73461  0.59337  0.49456  1.0000
  C   C119      1.0  0.19747  0.40854  0.38752  1.0000
  C   C120      1.0  0.23777  0.41846  0.38817  1.0000
  O   O55       1.0  0.18620  0.37560  0.43314  1.0000
  O   O56       1.0  0.26255  0.39344  0.43145  1.0000
  H   H55       1.0  0.19283  0.35304  0.39467  1.0000
  H   H56       1.0  0.26683  0.40469  0.49145  1.0000
  C   C121      1.0  0.13997  0.04279  0.36426  1.0000
  C   C122      1.0  0.11278  0.05008  0.43417  1.0000
  C   C123      1.0  0.08954  0.08421  0.43349  1.0000
  C   C124      1.0  0.09294  0.11200  0.36297  1.0000
  O   O57       1.0  0.06210  0.08815  0.49934  1.0000
  H   H57       1.0  0.07266  0.10766  0.54177  1.0000
  O   O58       1.0  0.10618  0.02321  0.50053  1.0000
  H   H58       1.0  0.12822  0.02578  0.54265  1.0000
  C   C125      1.0  0.86173  0.95830  0.36215  1.0000
  C   C126      1.0  0.88873  0.95025  0.43192  1.0000
  C   C127      1.0  0.91080  0.91527  0.43144  1.0000
  C   C128      1.0  0.90759  0.88828  0.35932  1.0000
  O   O59       1.0  0.93717  0.90980  0.49896  1.0000
  H   H59       1.0  0.92551  0.89008  0.53934  1.0000
  O   O60       1.0  0.89346  0.97597  0.50148  1.0000
  H   H60       1.0  0.91941  0.98833  0.49399  1.0000
  C   C129      1.0  0.95727  0.14118  0.36129  1.0000
  C   C130      1.0  0.94822  0.11669  0.43545  1.0000
  C   C131      1.0  0.91350  0.09412  0.43641  1.0000
  C   C132      1.0  0.88712  0.09535  0.36310  1.0000
  O   O61       1.0  0.90767  0.06909  0.50668  1.0000
  H   H61       1.0  0.88769  0.08139  0.54489  1.0000
  O   O62       1.0  0.97393  0.11189  0.50455  1.0000
  H   H62       1.0  0.97126  0.13530  0.54283  1.0000
  C   C133      1.0  0.04293  0.85955  0.35828  1.0000
  C   C134      1.0  0.05145  0.88469  0.43164  1.0000
  C   C135      1.0  0.08578  0.90782  0.43203  1.0000
  C   C136      1.0  0.11234  0.90631  0.35907  1.0000
  O   O63       1.0  0.09103  0.93354  0.50127  1.0000
  H   H63       1.0  0.11101  0.92182  0.54045  1.0000
  O   O64       1.0  0.02557  0.88956  0.50039  1.0000
  H   H64       1.0  0.02836  0.86633  0.53920  1.0000
  C   C137      1.0  0.38029  0.60818  0.37686  1.0000
  C   C138      1.0  0.35690  0.57358  0.37702  1.0000
  O   O65       1.0  0.37781  0.63324  0.44787  1.0000
  O   O66       1.0  0.33281  0.56674  0.44817  1.0000
  H   H65       1.0  0.35677  0.65183  0.43314  1.0000
  H   H66       1.0  0.30732  0.57808  0.43187  1.0000
  C   C139      1.0  0.62008  0.39475  0.37725  1.0000
  C   C140      1.0  0.64364  0.42921  0.37651  1.0000
  O   O67       1.0  0.62268  0.36983  0.44846  1.0000
  O   O68       1.0  0.66788  0.43615  0.44732  1.0000
  H   H67       1.0  0.64276  0.35039  0.43241  1.0000
  H   H68       1.0  0.69325  0.42451  0.43113  1.0000
  C   C141      1.0  0.60825  0.62349  0.37839  1.0000
  C   C142      1.0  0.57391  0.64678  0.37876  1.0000
  O   O69       1.0  0.63220  0.62456  0.45137  1.0000
  O   O70       1.0  0.56622  0.66932  0.45210  1.0000
  H   H69       1.0  0.65227  0.64462  0.43821  1.0000
  H   H70       1.0  0.57723  0.69551  0.43896  1.0000
  C   C143      1.0  0.39292  0.37905  0.38092  1.0000
  C   C144      1.0  0.42708  0.35548  0.38069  1.0000
  O   O71       1.0  0.36932  0.37834  0.45452  1.0000
  O   O72       1.0  0.43506  0.33307  0.45407  1.0000
  H   H71       1.0  0.34932  0.35807  0.44258  1.0000
  H   H72       1.0  0.42430  0.30677  0.44109  1.0000
