data_image0
_chemical_formula_structural       C6SiC8H12C4NC2NHC2H2OCO2HC10H4C2H2OCO2HC6N2HC6SiC8H12C4NC2NHC2H2OCO2HC10H4C2H2OCO2HC6N2HC6SiC8H12C4NC2NHC2H2OCO2HC10H4C2H2OCO2HC6N2HC6SiC8H12C4NC2NHC2H2OCO2HC10H4C2H2OCO2HC6N2HC6SiC8H12C4NC2NHC2H2OCO2HC10H4C2H2OCO2HC6N2HC6SiC8H12C4NC2NHC2H2OCO2HC10H4C2H2OCO2HC6N2HC6SiC8H12C4NC2NHC2H2OCO2HC10H4C2H2OCO2HC6N2HC6SiC8H12C4NC2NHC2H2OCO2HC10H4C2H2OCO2HC6N2HC6SiC8H12C4NC2NHC2H2OCO2HC10H4C2H2OCO2HC6N2H
_chemical_formula_sum              "C378 Si9 H216 N36 O54"
_cell_length_a       36.4866
_cell_length_b       36.4872
_cell_length_c       15.1117
_cell_angle_alpha    90
_cell_angle_beta     90
_cell_angle_gamma    89.9302

_space_group_name_H-M_alt    "P 1"
_space_group_IT_number       1

loop_
  _space_group_symop_operation_xyz
  'x, y, z'

loop_
  _atom_site_type_symbol
  _atom_site_label
  _atom_site_symmetry_multiplicity
  _atom_site_fract_x
  _atom_site_fract_y
  _atom_site_fract_z
  _atom_site_occupancy
  C   C1        1.0  0.99736  0.23881  0.29582  1.0000
  C   C2        1.0  0.03046  0.25470  0.26632  1.0000
  C   C3        1.0  0.02969  0.28150  0.19973  1.0000
  C   C4        1.0  0.99610  0.29319  0.16238  1.0000
  C   C5        1.0  0.29651  0.28146  0.20305  1.0000
  C   C6        1.0  0.29705  0.25458  0.26933  1.0000
  Si  Si1       1.0  0.99549  0.99566  0.09561  1.0000
  C   C7        1.0  0.99494  0.02772  0.17274  1.0000
  C   C8        1.0  0.29481  0.03876  0.21234  1.0000
  C   C9        1.0  0.29431  0.06736  0.27440  1.0000
  C   C10       1.0  0.99412  0.08465  0.29819  1.0000
  C   C11       1.0  0.02787  0.06876  0.27290  1.0000
  C   C12       1.0  0.02813  0.04057  0.20974  1.0000
  C   C13       1.0  0.02948  0.99861  0.02304  1.0000
  C   C14       1.0  0.29363  0.33164  0.02710  1.0000
  H   H1        1.0  0.29404  0.05667  0.01620  1.0000
  H   H2        1.0  0.28587  0.27420  0.01068  1.0000
  H   H3        1.0  0.03719  0.27462  0.00537  1.0000
  H   H4        1.0  0.02824  0.05681  0.01070  1.0000
  H   H5        1.0  0.05287  0.03246  0.18491  1.0000
  H   H6        1.0  0.05206  0.08208  0.28511  1.0000
  H   H7        1.0  0.26966  0.07944  0.28892  1.0000
  H   H8        1.0  0.27015  0.02909  0.19008  1.0000
  H   H9        1.0  0.27152  0.29066  0.18175  1.0000
  H   H10       1.0  0.05414  0.29074  0.17563  1.0000
  H   H11       1.0  0.05507  0.24245  0.28027  1.0000
  H   H12       1.0  0.27267  0.24261  0.28665  1.0000
  C   C15       1.0  0.33030  0.20028  0.29875  1.0000
  C   C16       1.0  0.32991  0.18100  0.21729  1.0000
  C   C17       1.0  0.99444  0.14236  0.21560  1.0000
  C   C18       1.0  0.99356  0.12322  0.29799  1.0000
  N   N1        1.0  0.99363  0.12603  0.13351  1.0000
  C   C19       1.0  0.99528  0.14462  0.05573  1.0000
  C   C20       1.0  0.33121  0.18300  0.05815  1.0000
  N   N2        1.0  0.33160  0.19915  0.13853  1.0000
  H   H13       1.0  0.99169  0.09985  0.12811  1.0000
  C   C21       1.0  0.18313  0.32041  0.31490  1.0000
  C   C22       1.0  0.14445  0.32047  0.31161  1.0000
  H   H14       1.0  0.12616  0.35203  0.01585  1.0000
  H   H15       1.0  0.19024  0.35158  0.02227  1.0000
  O   O1        1.0  0.20350  0.31521  0.24095  1.0000
  C   C23       1.0  0.12506  0.31605  0.23387  1.0000
  O   O2        1.0  0.12089  0.34438  0.19208  1.0000
  O   O3        1.0  0.12964  0.28854  0.18747  1.0000
  H   H16       1.0  0.13458  0.26642  0.20859  1.0000
  C   C24       1.0  0.28312  0.03282  0.65918  1.0000
  C   C25       1.0  0.25524  0.03560  0.59590  1.0000
  C   C26       1.0  0.23693  0.33710  0.56687  1.0000
  C   C27       1.0  0.24962  0.30233  0.59443  1.0000
  C   C28       1.0  0.27828  0.29969  0.65608  1.0000
  C   C29       1.0  0.04391  0.30009  0.64925  1.0000
  C   C30       1.0  0.07083  0.30270  0.58295  1.0000
  C   C31       1.0  0.08307  0.00406  0.55331  1.0000
  C   C32       1.0  0.06434  0.03567  0.58330  1.0000
  C   C33       1.0  0.03865  0.03296  0.65216  1.0000
  H   H17       1.0  0.24513  0.06107  0.58090  1.0000
  H   H18       1.0  0.23542  0.27904  0.57845  1.0000
  H   H19       1.0  0.08500  0.27944  0.56629  1.0000
  H   H20       1.0  0.07416  0.06117  0.56782  1.0000
  C   C34       1.0  0.99405  0.14251  0.37895  1.0000
  C   C35       1.0  0.32867  0.18098  0.37927  1.0000
  H   H21       1.0  0.32876  0.19474  0.43811  1.0000
  H   H22       1.0  0.99355  0.12875  0.43799  1.0000
  O   O4        1.0  0.99440  0.12627  0.64444  1.0000
  C   C36       1.0  0.33377  0.20468  0.65042  1.0000
  O   O5        1.0  0.30545  0.20893  0.60860  1.0000
  O   O6        1.0  0.36185  0.20371  0.60463  1.0000
  H   H23       1.0  0.38414  0.19908  0.62521  1.0000
  C   C37       1.0  0.12151  0.34064  0.54453  1.0000
  C   C38       1.0  0.14214  0.33350  0.46684  1.0000
  C   C39       1.0  0.18126  0.33333  0.47002  1.0000
  C   C40       1.0  0.19900  0.34026  0.55194  1.0000
  C   C41       1.0  0.17811  0.34758  0.62845  1.0000
  C   C42       1.0  0.14012  0.34780  0.62462  1.0000
  N   N3        1.0  0.20017  0.32654  0.39350  1.0000
  N   N4        1.0  0.12566  0.32708  0.38761  1.0000
  H   H24       1.0  0.22687  0.32667  0.39369  1.0000
  C   C43       1.0  0.99736  0.57214  0.29582  1.0000
  C   C44       1.0  0.03046  0.58804  0.26632  1.0000
  C   C45       1.0  0.02969  0.61484  0.19973  1.0000
  C   C46       1.0  0.99610  0.62652  0.16238  1.0000
  C   C47       1.0  0.29651  0.61479  0.20305  1.0000
  C   C48       1.0  0.29705  0.58791  0.26933  1.0000
  Si  Si2       1.0  0.99549  0.32899  0.09562  1.0000
  C   C49       1.0  0.99494  0.36106  0.17274  1.0000
  C   C50       1.0  0.29481  0.37209  0.21234  1.0000
  C   C51       1.0  0.29431  0.40069  0.27440  1.0000
  C   C52       1.0  0.99412  0.41798  0.29819  1.0000
  C   C53       1.0  0.02787  0.40209  0.27290  1.0000
  C   C54       1.0  0.02813  0.37390  0.20974  1.0000
  C   C55       1.0  0.02948  0.33194  0.02304  1.0000
  C   C56       1.0  0.29363  0.66497  0.02710  1.0000
  H   H25       1.0  0.29404  0.39001  0.01620  1.0000
  H   H26       1.0  0.28587  0.60754  0.01068  1.0000
  H   H27       1.0  0.03719  0.60795  0.00537  1.0000
  H   H28       1.0  0.02824  0.39014  0.01070  1.0000
  H   H29       1.0  0.05286  0.36579  0.18491  1.0000
  H   H30       1.0  0.05206  0.41541  0.28511  1.0000
  H   H31       1.0  0.26966  0.41277  0.28892  1.0000
  H   H32       1.0  0.27015  0.36242  0.19008  1.0000
  H   H33       1.0  0.27152  0.62400  0.18176  1.0000
  H   H34       1.0  0.05414  0.62408  0.17563  1.0000
  H   H35       1.0  0.05507  0.57578  0.28027  1.0000
  H   H36       1.0  0.27267  0.57595  0.28665  1.0000
  C   C57       1.0  0.33030  0.53362  0.29875  1.0000
  C   C58       1.0  0.32991  0.51434  0.21729  1.0000
  C   C59       1.0  0.99444  0.47569  0.21560  1.0000
  C   C60       1.0  0.99356  0.45655  0.29799  1.0000
  N   N5        1.0  0.99363  0.45937  0.13351  1.0000
  C   C61       1.0  0.99528  0.47795  0.05573  1.0000
  C   C62       1.0  0.33121  0.51633  0.05816  1.0000
  N   N6        1.0  0.33160  0.53249  0.13853  1.0000
  H   H37       1.0  0.99169  0.43319  0.12811  1.0000
  C   C63       1.0  0.18313  0.65375  0.31490  1.0000
  C   C64       1.0  0.14445  0.65380  0.31161  1.0000
  H   H38       1.0  0.12616  0.68537  0.01585  1.0000
  H   H39       1.0  0.19024  0.68492  0.02227  1.0000
  O   O7        1.0  0.20350  0.64854  0.24095  1.0000
  C   C65       1.0  0.12506  0.64938  0.23387  1.0000
  O   O8        1.0  0.12089  0.67772  0.19208  1.0000
  O   O9        1.0  0.12964  0.62187  0.18747  1.0000
  H   H40       1.0  0.13458  0.59976  0.20859  1.0000
  C   C66       1.0  0.28312  0.36616  0.65918  1.0000
  C   C67       1.0  0.25524  0.36894  0.59590  1.0000
  C   C68       1.0  0.23693  0.67043  0.56687  1.0000
  C   C69       1.0  0.24961  0.63567  0.59443  1.0000
  C   C70       1.0  0.27828  0.63302  0.65608  1.0000
  C   C71       1.0  0.04391  0.63342  0.64925  1.0000
  C   C72       1.0  0.07083  0.63604  0.58295  1.0000
  C   C73       1.0  0.08307  0.33739  0.55331  1.0000
  C   C74       1.0  0.06434  0.36900  0.58330  1.0000
  C   C75       1.0  0.03865  0.36629  0.65216  1.0000
  H   H41       1.0  0.24513  0.39441  0.58090  1.0000
  H   H42       1.0  0.23542  0.61238  0.57845  1.0000
  H   H43       1.0  0.08500  0.61277  0.56629  1.0000
  H   H44       1.0  0.07416  0.39450  0.56782  1.0000
  C   C76       1.0  0.99405  0.47584  0.37895  1.0000
  C   C77       1.0  0.32867  0.51432  0.37927  1.0000
  H   H45       1.0  0.32876  0.52807  0.43811  1.0000
  H   H46       1.0  0.99355  0.46209  0.43799  1.0000
  O   O10       1.0  0.99440  0.45961  0.64444  1.0000
  C   C78       1.0  0.33377  0.53801  0.65042  1.0000
  O   O11       1.0  0.30545  0.54226  0.60860  1.0000
  O   O12       1.0  0.36185  0.53704  0.60463  1.0000
  H   H47       1.0  0.38414  0.53241  0.62521  1.0000
  C   C79       1.0  0.12151  0.67397  0.54453  1.0000
  C   C80       1.0  0.14214  0.66683  0.46684  1.0000
  C   C81       1.0  0.18126  0.66666  0.47002  1.0000
  C   C82       1.0  0.19900  0.67359  0.55194  1.0000
  C   C83       1.0  0.17811  0.68091  0.62845  1.0000
  C   C84       1.0  0.14012  0.68113  0.62462  1.0000
  N   N7        1.0  0.20017  0.65987  0.39350  1.0000
  N   N8        1.0  0.12566  0.66041  0.38761  1.0000
  H   H48       1.0  0.22687  0.66000  0.39369  1.0000
  C   C85       1.0  0.99736  0.90548  0.29581  1.0000
  C   C86       1.0  0.03046  0.92137  0.26632  1.0000
  C   C87       1.0  0.02969  0.94817  0.19973  1.0000
  C   C88       1.0  0.99610  0.95985  0.16238  1.0000
  C   C89       1.0  0.29651  0.94813  0.20304  1.0000
  C   C90       1.0  0.29705  0.92125  0.26933  1.0000
  Si  Si3       1.0  0.99549  0.66233  0.09562  1.0000
  C   C91       1.0  0.99494  0.69439  0.17274  1.0000
  C   C92       1.0  0.29481  0.70543  0.21234  1.0000
  C   C93       1.0  0.29431  0.73403  0.27440  1.0000
  C   C94       1.0  0.99412  0.75131  0.29819  1.0000
  C   C95       1.0  0.02787  0.73543  0.27290  1.0000
  C   C96       1.0  0.02813  0.70724  0.20974  1.0000
  C   C97       1.0  0.02948  0.66528  0.02304  1.0000
  C   C98       1.0  0.29363  0.99831  0.02710  1.0000
  H   H49       1.0  0.29403  0.72334  0.01620  1.0000
  H   H50       1.0  0.28587  0.94087  0.01067  1.0000
  H   H51       1.0  0.03719  0.94129  0.00537  1.0000
  H   H52       1.0  0.02824  0.72347  0.01070  1.0000
  H   H53       1.0  0.05286  0.69912  0.18491  1.0000
  H   H54       1.0  0.05205  0.74875  0.28511  1.0000
  H   H55       1.0  0.26966  0.74610  0.28892  1.0000
  H   H56       1.0  0.27015  0.69576  0.19008  1.0000
  H   H57       1.0  0.27152  0.95733  0.18175  1.0000
  H   H58       1.0  0.05414  0.95741  0.17563  1.0000
  H   H59       1.0  0.05507  0.90912  0.28027  1.0000
  H   H60       1.0  0.27267  0.90928  0.28665  1.0000
  C   C99       1.0  0.33030  0.86695  0.29875  1.0000
  C   C100      1.0  0.32991  0.84767  0.21729  1.0000
  C   C101      1.0  0.99444  0.80902  0.21560  1.0000
  C   C102      1.0  0.99356  0.78988  0.29799  1.0000
  N   N9        1.0  0.99364  0.79270  0.13351  1.0000
  C   C103      1.0  0.99528  0.81128  0.05573  1.0000
  C   C104      1.0  0.33121  0.84966  0.05815  1.0000
  N   N10       1.0  0.33160  0.86582  0.13853  1.0000
  H   H61       1.0  0.99169  0.76652  0.12811  1.0000
  C   C105      1.0  0.18313  0.98708  0.31490  1.0000
  C   C106      1.0  0.14445  0.98713  0.31161  1.0000
  H   H62       1.0  0.12615  0.01870  0.01584  1.0000
  H   H63       1.0  0.19023  0.01825  0.02227  1.0000
  O   O13       1.0  0.20350  0.98188  0.24095  1.0000
  C   C107      1.0  0.12506  0.98271  0.23387  1.0000
  O   O14       1.0  0.12089  0.01105  0.19208  1.0000
  O   O15       1.0  0.12964  0.95520  0.18747  1.0000
  H   H64       1.0  0.13458  0.93309  0.20859  1.0000
  C   C108      1.0  0.28312  0.69949  0.65918  1.0000
  C   C109      1.0  0.25524  0.70227  0.59590  1.0000
  C   C110      1.0  0.23693  0.00377  0.56687  1.0000
  C   C111      1.0  0.24961  0.96900  0.59443  1.0000
  C   C112      1.0  0.27828  0.96635  0.65608  1.0000
  C   C113      1.0  0.04391  0.96676  0.64925  1.0000
  C   C114      1.0  0.07083  0.96937  0.58295  1.0000
  C   C115      1.0  0.08307  0.67073  0.55331  1.0000
  C   C116      1.0  0.06434  0.70234  0.58330  1.0000
  C   C117      1.0  0.03865  0.69963  0.65216  1.0000
  H   H65       1.0  0.24513  0.72774  0.58090  1.0000
  H   H66       1.0  0.23542  0.94571  0.57845  1.0000
  H   H67       1.0  0.08500  0.94611  0.56629  1.0000
  H   H68       1.0  0.07417  0.72784  0.56782  1.0000
  C   C118      1.0  0.99405  0.80917  0.37895  1.0000
  C   C119      1.0  0.32867  0.84765  0.37926  1.0000
  H   H69       1.0  0.32875  0.86141  0.43811  1.0000
  H   H70       1.0  0.99355  0.79542  0.43799  1.0000
  O   O16       1.0  0.99441  0.79294  0.64444  1.0000
  C   C120      1.0  0.33377  0.87135  0.65042  1.0000
  O   O17       1.0  0.30545  0.87560  0.60860  1.0000
  O   O18       1.0  0.36185  0.87038  0.60463  1.0000
  H   H71       1.0  0.38414  0.86574  0.62520  1.0000
  C   C121      1.0  0.12151  0.00730  0.54453  1.0000
  C   C122      1.0  0.14214  0.00016  0.46684  1.0000
  C   C123      1.0  0.18126  0.99999  0.47002  1.0000
  C   C124      1.0  0.19900  0.00693  0.55194  1.0000
  C   C125      1.0  0.17811  0.01425  0.62845  1.0000
  C   C126      1.0  0.14012  0.01447  0.62462  1.0000
  N   N11       1.0  0.20017  0.99321  0.39350  1.0000
  N   N12       1.0  0.12566  0.99375  0.38761  1.0000
  H   H72       1.0  0.22687  0.99334  0.39369  1.0000
  C   C127      1.0  0.33070  0.23881  0.29582  1.0000
  C   C128      1.0  0.36379  0.25470  0.26632  1.0000
  C   C129      1.0  0.36302  0.28150  0.19973  1.0000
  C   C130      1.0  0.32943  0.29319  0.16238  1.0000
  C   C131      1.0  0.62984  0.28146  0.20305  1.0000
  C   C132      1.0  0.63038  0.25458  0.26933  1.0000
  Si  Si4       1.0  0.32882  0.99566  0.09561  1.0000
  C   C133      1.0  0.32827  0.02772  0.17274  1.0000
  C   C134      1.0  0.62814  0.03876  0.21234  1.0000
  C   C135      1.0  0.62764  0.06736  0.27440  1.0000
  C   C136      1.0  0.32745  0.08465  0.29819  1.0000
  C   C137      1.0  0.36120  0.06876  0.27290  1.0000
  C   C138      1.0  0.36146  0.04057  0.20974  1.0000
  C   C139      1.0  0.36281  0.99861  0.02304  1.0000
  C   C140      1.0  0.62696  0.33164  0.02710  1.0000
  H   H73       1.0  0.62737  0.05667  0.01620  1.0000
  H   H74       1.0  0.61921  0.27420  0.01068  1.0000
  H   H75       1.0  0.37053  0.27462  0.00537  1.0000
  H   H76       1.0  0.36158  0.05681  0.01070  1.0000
  H   H77       1.0  0.38620  0.03246  0.18491  1.0000
  H   H78       1.0  0.38539  0.08208  0.28511  1.0000
  H   H79       1.0  0.60299  0.07944  0.28892  1.0000
  H   H80       1.0  0.60348  0.02909  0.19008  1.0000
  H   H81       1.0  0.60486  0.29066  0.18175  1.0000
  H   H82       1.0  0.38748  0.29074  0.17563  1.0000
  H   H83       1.0  0.38840  0.24245  0.28027  1.0000
  H   H84       1.0  0.60600  0.24261  0.28665  1.0000
  C   C141      1.0  0.66363  0.20028  0.29875  1.0000
  C   C142      1.0  0.66324  0.18100  0.21729  1.0000
  C   C143      1.0  0.32777  0.14236  0.21560  1.0000
  C   C144      1.0  0.32689  0.12322  0.29799  1.0000
  N   N13       1.0  0.32697  0.12603  0.13351  1.0000
  C   C145      1.0  0.32861  0.14462  0.05573  1.0000
  C   C146      1.0  0.66455  0.18300  0.05815  1.0000
  N   N14       1.0  0.66493  0.19915  0.13853  1.0000
  H   H85       1.0  0.32502  0.09985  0.12811  1.0000
  C   C147      1.0  0.51647  0.32041  0.31490  1.0000
  C   C148      1.0  0.47779  0.32047  0.31161  1.0000
  H   H86       1.0  0.45949  0.35203  0.01585  1.0000
  H   H87       1.0  0.52357  0.35158  0.02227  1.0000
  O   O19       1.0  0.53684  0.31521  0.24095  1.0000
  C   C149      1.0  0.45839  0.31605  0.23387  1.0000
  O   O20       1.0  0.45422  0.34438  0.19208  1.0000
  O   O21       1.0  0.46297  0.28854  0.18747  1.0000
  H   H88       1.0  0.46792  0.26642  0.20859  1.0000
  C   C150      1.0  0.61646  0.03282  0.65918  1.0000
  C   C151      1.0  0.58858  0.03560  0.59590  1.0000
  C   C152      1.0  0.57027  0.33710  0.56687  1.0000
  C   C153      1.0  0.58295  0.30233  0.59443  1.0000
  C   C154      1.0  0.61161  0.29969  0.65608  1.0000
  C   C155      1.0  0.37725  0.30009  0.64925  1.0000
  C   C156      1.0  0.40417  0.30270  0.58295  1.0000
  C   C157      1.0  0.41640  0.00406  0.55331  1.0000
  C   C158      1.0  0.39767  0.03567  0.58330  1.0000
  C   C159      1.0  0.37198  0.03296  0.65216  1.0000
  H   H89       1.0  0.57846  0.06107  0.58090  1.0000
  H   H90       1.0  0.56876  0.27904  0.57845  1.0000
  H   H91       1.0  0.41833  0.27944  0.56629  1.0000
  H   H92       1.0  0.40750  0.06117  0.56782  1.0000
  C   C160      1.0  0.32738  0.14251  0.37895  1.0000
  C   C161      1.0  0.66200  0.18098  0.37927  1.0000
  H   H93       1.0  0.66209  0.19474  0.43811  1.0000
  H   H94       1.0  0.32688  0.12875  0.43799  1.0000
  O   O22       1.0  0.32774  0.12627  0.64444  1.0000
  C   C162      1.0  0.66710  0.20468  0.65042  1.0000
  O   O23       1.0  0.63879  0.20893  0.60860  1.0000
  O   O24       1.0  0.69518  0.20371  0.60463  1.0000
  H   H95       1.0  0.71747  0.19908  0.62521  1.0000
  C   C163      1.0  0.45485  0.34064  0.54453  1.0000
  C   C164      1.0  0.47548  0.33350  0.46684  1.0000
  C   C165      1.0  0.51459  0.33333  0.47002  1.0000
  C   C166      1.0  0.53233  0.34026  0.55194  1.0000
  C   C167      1.0  0.51144  0.34758  0.62845  1.0000
  C   C168      1.0  0.47346  0.34780  0.62462  1.0000
  N   N15       1.0  0.53350  0.32654  0.39350  1.0000
  N   N16       1.0  0.45899  0.32708  0.38761  1.0000
  H   H96       1.0  0.56020  0.32667  0.39369  1.0000
  C   C169      1.0  0.33070  0.57214  0.29582  1.0000
  C   C170      1.0  0.36379  0.58804  0.26632  1.0000
  C   C171      1.0  0.36302  0.61484  0.19973  1.0000
  C   C172      1.0  0.32943  0.62652  0.16238  1.0000
  C   C173      1.0  0.62984  0.61479  0.20305  1.0000
  C   C174      1.0  0.63038  0.58791  0.26933  1.0000
  Si  Si5       1.0  0.32882  0.32899  0.09562  1.0000
  C   C175      1.0  0.32827  0.36106  0.17274  1.0000
  C   C176      1.0  0.62814  0.37209  0.21234  1.0000
  C   C177      1.0  0.62764  0.40069  0.27440  1.0000
  C   C178      1.0  0.32745  0.41798  0.29819  1.0000
  C   C179      1.0  0.36120  0.40209  0.27290  1.0000
  C   C180      1.0  0.36146  0.37390  0.20974  1.0000
  C   C181      1.0  0.36281  0.33194  0.02304  1.0000
  C   C182      1.0  0.62696  0.66497  0.02710  1.0000
  H   H97       1.0  0.62737  0.39001  0.01620  1.0000
  H   H98       1.0  0.61921  0.60754  0.01068  1.0000
  H   H99       1.0  0.37053  0.60795  0.00537  1.0000
  H   H100      1.0  0.36158  0.39014  0.01070  1.0000
  H   H101      1.0  0.38620  0.36579  0.18491  1.0000
  H   H102      1.0  0.38539  0.41541  0.28511  1.0000
  H   H103      1.0  0.60299  0.41277  0.28892  1.0000
  H   H104      1.0  0.60348  0.36242  0.19008  1.0000
  H   H105      1.0  0.60486  0.62400  0.18176  1.0000
  H   H106      1.0  0.38748  0.62408  0.17563  1.0000
  H   H107      1.0  0.38840  0.57578  0.28027  1.0000
  H   H108      1.0  0.60600  0.57595  0.28665  1.0000
  C   C183      1.0  0.66363  0.53362  0.29875  1.0000
  C   C184      1.0  0.66324  0.51434  0.21729  1.0000
  C   C185      1.0  0.32778  0.47569  0.21560  1.0000
  C   C186      1.0  0.32689  0.45655  0.29799  1.0000
  N   N17       1.0  0.32697  0.45937  0.13351  1.0000
  C   C187      1.0  0.32861  0.47795  0.05573  1.0000
  C   C188      1.0  0.66454  0.51633  0.05816  1.0000
  N   N18       1.0  0.66493  0.53249  0.13853  1.0000
  H   H109      1.0  0.32502  0.43319  0.12811  1.0000
  C   C189      1.0  0.51647  0.65375  0.31490  1.0000
  C   C190      1.0  0.47779  0.65380  0.31161  1.0000
  H   H110      1.0  0.45949  0.68537  0.01585  1.0000
  H   H111      1.0  0.52357  0.68492  0.02227  1.0000
  O   O25       1.0  0.53683  0.64854  0.24095  1.0000
  C   C191      1.0  0.45839  0.64938  0.23387  1.0000
  O   O26       1.0  0.45422  0.67772  0.19208  1.0000
  O   O27       1.0  0.46297  0.62187  0.18747  1.0000
  H   H112      1.0  0.46792  0.59976  0.20859  1.0000
  C   C192      1.0  0.61646  0.36616  0.65918  1.0000
  C   C193      1.0  0.58857  0.36894  0.59590  1.0000
  C   C194      1.0  0.57027  0.67043  0.56687  1.0000
  C   C195      1.0  0.58295  0.63567  0.59443  1.0000
  C   C196      1.0  0.61161  0.63302  0.65608  1.0000
  C   C197      1.0  0.37725  0.63342  0.64925  1.0000
  C   C198      1.0  0.40417  0.63604  0.58295  1.0000
  C   C199      1.0  0.41640  0.33739  0.55331  1.0000
  C   C200      1.0  0.39767  0.36900  0.58330  1.0000
  C   C201      1.0  0.37198  0.36629  0.65216  1.0000
  H   H113      1.0  0.57846  0.39441  0.58090  1.0000
  H   H114      1.0  0.56876  0.61238  0.57845  1.0000
  H   H115      1.0  0.41833  0.61277  0.56629  1.0000
  H   H116      1.0  0.40750  0.39450  0.56782  1.0000
  C   C202      1.0  0.32738  0.47584  0.37895  1.0000
  C   C203      1.0  0.66200  0.51432  0.37927  1.0000
  H   H117      1.0  0.66209  0.52807  0.43811  1.0000
  H   H118      1.0  0.32688  0.46209  0.43799  1.0000
  O   O28       1.0  0.32774  0.45961  0.64444  1.0000
  C   C204      1.0  0.66710  0.53801  0.65042  1.0000
  O   O29       1.0  0.63879  0.54226  0.60860  1.0000
  O   O30       1.0  0.69518  0.53704  0.60463  1.0000
  H   H119      1.0  0.71747  0.53241  0.62521  1.0000
  C   C205      1.0  0.45485  0.67397  0.54453  1.0000
  C   C206      1.0  0.47548  0.66683  0.46684  1.0000
  C   C207      1.0  0.51459  0.66666  0.47002  1.0000
  C   C208      1.0  0.53233  0.67359  0.55194  1.0000
  C   C209      1.0  0.51144  0.68091  0.62845  1.0000
  C   C210      1.0  0.47346  0.68113  0.62462  1.0000
  N   N19       1.0  0.53350  0.65987  0.39350  1.0000
  N   N20       1.0  0.45899  0.66041  0.38761  1.0000
  H   H120      1.0  0.56020  0.66000  0.39369  1.0000
  C   C211      1.0  0.33070  0.90548  0.29581  1.0000
  C   C212      1.0  0.36379  0.92137  0.26632  1.0000
  C   C213      1.0  0.36302  0.94817  0.19973  1.0000
  C   C214      1.0  0.32943  0.95985  0.16238  1.0000
  C   C215      1.0  0.62984  0.94813  0.20304  1.0000
  C   C216      1.0  0.63038  0.92125  0.26933  1.0000
  Si  Si6       1.0  0.32882  0.66233  0.09562  1.0000
  C   C217      1.0  0.32827  0.69439  0.17274  1.0000
  C   C218      1.0  0.62814  0.70543  0.21234  1.0000
  C   C219      1.0  0.62764  0.73403  0.27440  1.0000
  C   C220      1.0  0.32745  0.75131  0.29819  1.0000
  C   C221      1.0  0.36120  0.73543  0.27290  1.0000
  C   C222      1.0  0.36146  0.70724  0.20974  1.0000
  C   C223      1.0  0.36281  0.66528  0.02304  1.0000
  C   C224      1.0  0.62696  0.99831  0.02710  1.0000
  H   H121      1.0  0.62737  0.72334  0.01620  1.0000
  H   H122      1.0  0.61921  0.94087  0.01067  1.0000
  H   H123      1.0  0.37052  0.94129  0.00537  1.0000
  H   H124      1.0  0.36157  0.72347  0.01070  1.0000
  H   H125      1.0  0.38620  0.69912  0.18491  1.0000
  H   H126      1.0  0.38539  0.74875  0.28511  1.0000
  H   H127      1.0  0.60299  0.74610  0.28892  1.0000
  H   H128      1.0  0.60348  0.69576  0.19008  1.0000
  H   H129      1.0  0.60486  0.95733  0.18175  1.0000
  H   H130      1.0  0.38748  0.95741  0.17563  1.0000
  H   H131      1.0  0.38840  0.90912  0.28027  1.0000
  H   H132      1.0  0.60600  0.90928  0.28665  1.0000
  C   C225      1.0  0.66363  0.86695  0.29875  1.0000
  C   C226      1.0  0.66325  0.84767  0.21729  1.0000
  C   C227      1.0  0.32778  0.80902  0.21560  1.0000
  C   C228      1.0  0.32689  0.78988  0.29799  1.0000
  N   N21       1.0  0.32697  0.79270  0.13351  1.0000
  C   C229      1.0  0.32861  0.81128  0.05573  1.0000
  C   C230      1.0  0.66455  0.84966  0.05815  1.0000
  N   N22       1.0  0.66493  0.86582  0.13853  1.0000
  H   H133      1.0  0.32502  0.76652  0.12811  1.0000
  C   C231      1.0  0.51647  0.98708  0.31490  1.0000
  C   C232      1.0  0.47779  0.98713  0.31161  1.0000
  H   H134      1.0  0.45949  0.01870  0.01584  1.0000
  H   H135      1.0  0.52357  0.01825  0.02227  1.0000
  O   O31       1.0  0.53683  0.98188  0.24095  1.0000
  C   C233      1.0  0.45839  0.98271  0.23387  1.0000
  O   O32       1.0  0.45422  0.01105  0.19208  1.0000
  O   O33       1.0  0.46297  0.95520  0.18747  1.0000
  H   H136      1.0  0.46792  0.93309  0.20859  1.0000
  C   C234      1.0  0.61645  0.69949  0.65918  1.0000
  C   C235      1.0  0.58857  0.70227  0.59590  1.0000
  C   C236      1.0  0.57027  0.00377  0.56687  1.0000
  C   C237      1.0  0.58295  0.96900  0.59443  1.0000
  C   C238      1.0  0.61161  0.96635  0.65608  1.0000
  C   C239      1.0  0.37725  0.96676  0.64925  1.0000
  C   C240      1.0  0.40417  0.96937  0.58295  1.0000
  C   C241      1.0  0.41640  0.67073  0.55331  1.0000
  C   C242      1.0  0.39767  0.70234  0.58330  1.0000
  C   C243      1.0  0.37198  0.69963  0.65216  1.0000
  H   H137      1.0  0.57846  0.72774  0.58090  1.0000
  H   H138      1.0  0.56876  0.94571  0.57845  1.0000
  H   H139      1.0  0.41833  0.94611  0.56629  1.0000
  H   H140      1.0  0.40750  0.72784  0.56782  1.0000
  C   C244      1.0  0.32738  0.80917  0.37895  1.0000
  C   C245      1.0  0.66200  0.84765  0.37926  1.0000
  H   H141      1.0  0.66209  0.86141  0.43811  1.0000
  H   H142      1.0  0.32688  0.79542  0.43799  1.0000
  O   O34       1.0  0.32774  0.79294  0.64444  1.0000
  C   C246      1.0  0.66710  0.87135  0.65042  1.0000
  O   O35       1.0  0.63879  0.87560  0.60860  1.0000
  O   O36       1.0  0.69519  0.87038  0.60463  1.0000
  H   H143      1.0  0.71748  0.86574  0.62520  1.0000
  C   C247      1.0  0.45485  0.00730  0.54453  1.0000
  C   C248      1.0  0.47548  0.00016  0.46684  1.0000
  C   C249      1.0  0.51460  0.99999  0.47002  1.0000
  C   C250      1.0  0.53233  0.00693  0.55194  1.0000
  C   C251      1.0  0.51144  0.01425  0.62845  1.0000
  C   C252      1.0  0.47346  0.01447  0.62462  1.0000
  N   N23       1.0  0.53350  0.99321  0.39350  1.0000
  N   N24       1.0  0.45899  0.99375  0.38761  1.0000
  H   H144      1.0  0.56020  0.99334  0.39369  1.0000
  C   C253      1.0  0.66403  0.23881  0.29582  1.0000
  C   C254      1.0  0.69713  0.25470  0.26632  1.0000
  C   C255      1.0  0.69635  0.28150  0.19973  1.0000
  C   C256      1.0  0.66276  0.29319  0.16238  1.0000
  C   C257      1.0  0.96318  0.28146  0.20305  1.0000
  C   C258      1.0  0.96371  0.25458  0.26933  1.0000
  Si  Si7       1.0  0.66215  0.99566  0.09561  1.0000
  C   C259      1.0  0.66160  0.02772  0.17274  1.0000
  C   C260      1.0  0.96148  0.03876  0.21234  1.0000
  C   C261      1.0  0.96097  0.06736  0.27440  1.0000
  C   C262      1.0  0.66078  0.08465  0.29819  1.0000
  C   C263      1.0  0.69453  0.06876  0.27290  1.0000
  C   C264      1.0  0.69479  0.04057  0.20974  1.0000
  C   C265      1.0  0.69615  0.99861  0.02304  1.0000
  C   C266      1.0  0.96030  0.33164  0.02710  1.0000
  H   H145      1.0  0.96070  0.05667  0.01620  1.0000
  H   H146      1.0  0.95254  0.27420  0.01068  1.0000
  H   H147      1.0  0.70386  0.27462  0.00537  1.0000
  H   H148      1.0  0.69491  0.05681  0.01070  1.0000
  H   H149      1.0  0.71953  0.03246  0.18491  1.0000
  H   H150      1.0  0.71872  0.08208  0.28511  1.0000
  H   H151      1.0  0.93632  0.07944  0.28892  1.0000
  H   H152      1.0  0.93682  0.02909  0.19008  1.0000
  H   H153      1.0  0.93819  0.29066  0.18175  1.0000
  H   H154      1.0  0.72081  0.29074  0.17563  1.0000
  H   H155      1.0  0.72174  0.24245  0.28027  1.0000
  H   H156      1.0  0.93934  0.24261  0.28665  1.0000
  C   C267      1.0  0.99697  0.20028  0.29875  1.0000
  C   C268      1.0  0.99658  0.18100  0.21729  1.0000
  C   C269      1.0  0.66111  0.14236  0.21560  1.0000
  C   C270      1.0  0.66022  0.12322  0.29799  1.0000
  N   N25       1.0  0.66030  0.12603  0.13351  1.0000
  C   C271      1.0  0.66194  0.14462  0.05573  1.0000
  C   C272      1.0  0.99788  0.18300  0.05815  1.0000
  N   N26       1.0  0.99827  0.19915  0.13853  1.0000
  H   H157      1.0  0.65835  0.09985  0.12811  1.0000
  C   C273      1.0  0.84980  0.32041  0.31490  1.0000
  C   C274      1.0  0.81112  0.32047  0.31161  1.0000
  H   H158      1.0  0.79282  0.35203  0.01585  1.0000
  H   H159      1.0  0.85690  0.35158  0.02227  1.0000
  O   O37       1.0  0.87017  0.31521  0.24095  1.0000
  C   C275      1.0  0.79173  0.31605  0.23387  1.0000
  O   O38       1.0  0.78756  0.34438  0.19208  1.0000
  O   O39       1.0  0.79631  0.28854  0.18747  1.0000
  H   H160      1.0  0.80125  0.26642  0.20859  1.0000
  C   C276      1.0  0.94979  0.03282  0.65918  1.0000
  C   C277      1.0  0.92191  0.03560  0.59590  1.0000
  C   C278      1.0  0.90360  0.33710  0.56687  1.0000
  C   C279      1.0  0.91628  0.30233  0.59443  1.0000
  C   C280      1.0  0.94495  0.29969  0.65608  1.0000
  C   C281      1.0  0.71058  0.30009  0.64925  1.0000
  C   C282      1.0  0.73750  0.30270  0.58295  1.0000
  C   C283      1.0  0.74973  0.00406  0.55331  1.0000
  C   C284      1.0  0.73101  0.03567  0.58330  1.0000
  C   C285      1.0  0.70531  0.03296  0.65216  1.0000
  H   H161      1.0  0.91179  0.06107  0.58090  1.0000
  H   H162      1.0  0.90209  0.27904  0.57845  1.0000
  H   H163      1.0  0.75167  0.27944  0.56629  1.0000
  H   H164      1.0  0.74083  0.06117  0.56782  1.0000
  C   C286      1.0  0.66072  0.14251  0.37895  1.0000
  C   C287      1.0  0.99534  0.18098  0.37927  1.0000
  H   H165      1.0  0.99542  0.19474  0.43811  1.0000
  H   H166      1.0  0.66021  0.12875  0.43799  1.0000
  O   O40       1.0  0.66107  0.12627  0.64444  1.0000
  C   C288      1.0  0.00043  0.20468  0.65042  1.0000
  O   O41       1.0  0.97212  0.20893  0.60860  1.0000
  O   O42       1.0  0.02852  0.20371  0.60463  1.0000
  H   H167      1.0  0.05081  0.19908  0.62521  1.0000
  C   C289      1.0  0.78818  0.34064  0.54453  1.0000
  C   C290      1.0  0.80881  0.33350  0.46684  1.0000
  C   C291      1.0  0.84793  0.33333  0.47002  1.0000
  C   C292      1.0  0.86566  0.34026  0.55194  1.0000
  C   C293      1.0  0.84477  0.34758  0.62845  1.0000
  C   C294      1.0  0.80679  0.34780  0.62462  1.0000
  N   N27       1.0  0.86683  0.32654  0.39350  1.0000
  N   N28       1.0  0.79232  0.32708  0.38761  1.0000
  H   H168      1.0  0.89353  0.32667  0.39369  1.0000
  C   C295      1.0  0.66403  0.57214  0.29582  1.0000
  C   C296      1.0  0.69713  0.58804  0.26632  1.0000
  C   C297      1.0  0.69635  0.61484  0.19973  1.0000
  C   C298      1.0  0.66276  0.62652  0.16238  1.0000
  C   C299      1.0  0.96318  0.61479  0.20305  1.0000
  C   C300      1.0  0.96371  0.58791  0.26933  1.0000
  Si  Si8       1.0  0.66216  0.32899  0.09562  1.0000
  C   C301      1.0  0.66160  0.36106  0.17274  1.0000
  C   C302      1.0  0.96148  0.37209  0.21234  1.0000
  C   C303      1.0  0.96097  0.40069  0.27440  1.0000
  C   C304      1.0  0.66078  0.41798  0.29819  1.0000
  C   C305      1.0  0.69453  0.40209  0.27290  1.0000
  C   C306      1.0  0.69479  0.37390  0.20974  1.0000
  C   C307      1.0  0.69615  0.33194  0.02304  1.0000
  C   C308      1.0  0.96030  0.66497  0.02710  1.0000
  H   H169      1.0  0.96070  0.39001  0.01620  1.0000
  H   H170      1.0  0.95254  0.60754  0.01068  1.0000
  H   H171      1.0  0.70386  0.60795  0.00537  1.0000
  H   H172      1.0  0.69491  0.39014  0.01070  1.0000
  H   H173      1.0  0.71953  0.36579  0.18491  1.0000
  H   H174      1.0  0.71872  0.41541  0.28511  1.0000
  H   H175      1.0  0.93632  0.41277  0.28892  1.0000
  H   H176      1.0  0.93682  0.36242  0.19008  1.0000
  H   H177      1.0  0.93819  0.62400  0.18176  1.0000
  H   H178      1.0  0.72081  0.62408  0.17563  1.0000
  H   H179      1.0  0.72173  0.57578  0.28027  1.0000
  H   H180      1.0  0.93934  0.57595  0.28665  1.0000
  C   C309      1.0  0.99697  0.53362  0.29875  1.0000
  C   C310      1.0  0.99658  0.51434  0.21729  1.0000
  C   C311      1.0  0.66111  0.47569  0.21560  1.0000
  C   C312      1.0  0.66023  0.45655  0.29799  1.0000
  N   N29       1.0  0.66030  0.45937  0.13351  1.0000
  C   C313      1.0  0.66195  0.47795  0.05573  1.0000
  C   C314      1.0  0.99788  0.51633  0.05816  1.0000
  N   N30       1.0  0.99827  0.53249  0.13853  1.0000
  H   H181      1.0  0.65835  0.43319  0.12811  1.0000
  C   C315      1.0  0.84980  0.65375  0.31490  1.0000
  C   C316      1.0  0.81112  0.65380  0.31161  1.0000
  H   H182      1.0  0.79282  0.68537  0.01585  1.0000
  H   H183      1.0  0.85690  0.68492  0.02227  1.0000
  O   O43       1.0  0.87017  0.64854  0.24095  1.0000
  C   C317      1.0  0.79173  0.64938  0.23387  1.0000
  O   O44       1.0  0.78756  0.67772  0.19208  1.0000
  O   O45       1.0  0.79631  0.62187  0.18747  1.0000
  H   H184      1.0  0.80125  0.59976  0.20859  1.0000
  C   C318      1.0  0.94979  0.36616  0.65918  1.0000
  C   C319      1.0  0.92191  0.36894  0.59590  1.0000
  C   C320      1.0  0.90360  0.67043  0.56687  1.0000
  C   C321      1.0  0.91628  0.63567  0.59443  1.0000
  C   C322      1.0  0.94495  0.63302  0.65608  1.0000
  C   C323      1.0  0.71058  0.63342  0.64925  1.0000
  C   C324      1.0  0.73750  0.63604  0.58295  1.0000
  C   C325      1.0  0.74973  0.33739  0.55331  1.0000
  C   C326      1.0  0.73101  0.36900  0.58330  1.0000
  C   C327      1.0  0.70531  0.36629  0.65216  1.0000
  H   H185      1.0  0.91179  0.39441  0.58090  1.0000
  H   H186      1.0  0.90209  0.61238  0.57845  1.0000
  H   H187      1.0  0.75167  0.61277  0.56629  1.0000
  H   H188      1.0  0.74083  0.39450  0.56782  1.0000
  C   C328      1.0  0.66072  0.47584  0.37895  1.0000
  C   C329      1.0  0.99534  0.51432  0.37927  1.0000
  H   H189      1.0  0.99542  0.52807  0.43811  1.0000
  H   H190      1.0  0.66021  0.46209  0.43799  1.0000
  O   O46       1.0  0.66107  0.45961  0.64444  1.0000
  C   C330      1.0  0.00043  0.53801  0.65042  1.0000
  O   O47       1.0  0.97212  0.54226  0.60860  1.0000
  O   O48       1.0  0.02852  0.53704  0.60463  1.0000
  H   H191      1.0  0.05081  0.53241  0.62521  1.0000
  C   C331      1.0  0.78818  0.67397  0.54453  1.0000
  C   C332      1.0  0.80881  0.66683  0.46684  1.0000
  C   C333      1.0  0.84793  0.66666  0.47002  1.0000
  C   C334      1.0  0.86566  0.67359  0.55194  1.0000
  C   C335      1.0  0.84477  0.68091  0.62845  1.0000
  C   C336      1.0  0.80679  0.68113  0.62462  1.0000
  N   N31       1.0  0.86683  0.65987  0.39350  1.0000
  N   N32       1.0  0.79232  0.66041  0.38761  1.0000
  H   H192      1.0  0.89353  0.66000  0.39369  1.0000
  C   C337      1.0  0.66403  0.90548  0.29581  1.0000
  C   C338      1.0  0.69713  0.92137  0.26632  1.0000
  C   C339      1.0  0.69635  0.94817  0.19973  1.0000
  C   C340      1.0  0.66276  0.95985  0.16238  1.0000
  C   C341      1.0  0.96318  0.94813  0.20304  1.0000
  C   C342      1.0  0.96371  0.92125  0.26933  1.0000
  Si  Si9       1.0  0.66216  0.66233  0.09562  1.0000
  C   C343      1.0  0.66160  0.69439  0.17274  1.0000
  C   C344      1.0  0.96147  0.70543  0.21234  1.0000
  C   C345      1.0  0.96097  0.73403  0.27440  1.0000
  C   C346      1.0  0.66078  0.75131  0.29819  1.0000
  C   C347      1.0  0.69453  0.73543  0.27290  1.0000
  C   C348      1.0  0.69479  0.70724  0.20974  1.0000
  C   C349      1.0  0.69615  0.66528  0.02304  1.0000
  C   C350      1.0  0.96030  0.99831  0.02710  1.0000
  H   H193      1.0  0.96070  0.72334  0.01620  1.0000
  H   H194      1.0  0.95254  0.94087  0.01067  1.0000
  H   H195      1.0  0.70386  0.94129  0.00537  1.0000
  H   H196      1.0  0.69491  0.72347  0.01070  1.0000
  H   H197      1.0  0.71953  0.69912  0.18491  1.0000
  H   H198      1.0  0.71872  0.74875  0.28511  1.0000
  H   H199      1.0  0.93632  0.74610  0.28892  1.0000
  H   H200      1.0  0.93682  0.69576  0.19008  1.0000
  H   H201      1.0  0.93819  0.95733  0.18175  1.0000
  H   H202      1.0  0.72081  0.95741  0.17563  1.0000
  H   H203      1.0  0.72173  0.90912  0.28027  1.0000
  H   H204      1.0  0.93934  0.90928  0.28665  1.0000
  C   C351      1.0  0.99697  0.86695  0.29875  1.0000
  C   C352      1.0  0.99658  0.84767  0.21729  1.0000
  C   C353      1.0  0.66111  0.80902  0.21560  1.0000
  C   C354      1.0  0.66023  0.78988  0.29799  1.0000
  N   N33       1.0  0.66030  0.79270  0.13351  1.0000
  C   C355      1.0  0.66195  0.81128  0.05573  1.0000
  C   C356      1.0  0.99788  0.84966  0.05815  1.0000
  N   N34       1.0  0.99827  0.86582  0.13853  1.0000
  H   H205      1.0  0.65835  0.76652  0.12811  1.0000
  C   C357      1.0  0.84980  0.98708  0.31490  1.0000
  C   C358      1.0  0.81112  0.98713  0.31161  1.0000
  H   H206      1.0  0.79282  0.01870  0.01584  1.0000
  H   H207      1.0  0.85690  0.01825  0.02227  1.0000
  O   O49       1.0  0.87017  0.98188  0.24095  1.0000
  C   C359      1.0  0.79173  0.98271  0.23387  1.0000
  O   O50       1.0  0.78756  0.01105  0.19208  1.0000
  O   O51       1.0  0.79631  0.95520  0.18747  1.0000
  H   H208      1.0  0.80125  0.93309  0.20859  1.0000
  C   C360      1.0  0.94979  0.69949  0.65918  1.0000
  C   C361      1.0  0.92191  0.70227  0.59590  1.0000
  C   C362      1.0  0.90360  0.00377  0.56687  1.0000
  C   C363      1.0  0.91628  0.96900  0.59443  1.0000
  C   C364      1.0  0.94495  0.96635  0.65608  1.0000
  C   C365      1.0  0.71058  0.96676  0.64925  1.0000
  C   C366      1.0  0.73750  0.96937  0.58295  1.0000
  C   C367      1.0  0.74973  0.67073  0.55331  1.0000
  C   C368      1.0  0.73101  0.70234  0.58330  1.0000
  C   C369      1.0  0.70531  0.69963  0.65216  1.0000
  H   H209      1.0  0.91179  0.72774  0.58090  1.0000
  H   H210      1.0  0.90209  0.94571  0.57845  1.0000
  H   H211      1.0  0.75167  0.94611  0.56629  1.0000
  H   H212      1.0  0.74083  0.72784  0.56782  1.0000
  C   C370      1.0  0.66072  0.80917  0.37895  1.0000
  C   C371      1.0  0.99534  0.84765  0.37926  1.0000
  H   H213      1.0  0.99542  0.86141  0.43811  1.0000
  H   H214      1.0  0.66021  0.79542  0.43799  1.0000
  O   O52       1.0  0.66107  0.79294  0.64444  1.0000
  C   C372      1.0  0.00043  0.87135  0.65042  1.0000
  O   O53       1.0  0.97212  0.87560  0.60860  1.0000
  O   O54       1.0  0.02852  0.87038  0.60463  1.0000
  H   H215      1.0  0.05081  0.86574  0.62520  1.0000
  C   C373      1.0  0.78818  0.00730  0.54453  1.0000
  C   C374      1.0  0.80881  0.00016  0.46684  1.0000
  C   C375      1.0  0.84793  0.99999  0.47002  1.0000
  C   C376      1.0  0.86566  0.00693  0.55194  1.0000
  C   C377      1.0  0.84477  0.01425  0.62845  1.0000
  C   C378      1.0  0.80679  0.01447  0.62462  1.0000
  N   N35       1.0  0.86683  0.99321  0.39350  1.0000
  N   N36       1.0  0.79232  0.99375  0.38761  1.0000
  H   H216      1.0  0.89353  0.99334  0.39369  1.0000
