data_image0
_chemical_formula_structural       C2OCHC2OCH3C3HCOHC2HCHCOHC2HC3OH4C6O2H4C6O2H4C3OHC3HOHC2HC3HOHC3HOHC3HOHC3HO2C3HOC3OHC3HOC3OHC2OHC3OH2C3OH2C3OH2C3OH2C3OH2C3OH4C6O2H4C6O2H4C3OHC3HOHC2HC3HOHC3HOHC3HOHC3HO2C3HOC3OHC3HOC3OHC2OHC3OH2C3OH2C3OH2C3OH2C3OH2C6O2H3C6O2H4C6O2H4C3HOHC3HOHC3HOHC3HOHC3HOHC3HOHC3HOC3OHC3HOC3OHC3HOC3OHC3OH2C3OH2C3OH2C3OH2C3OH2C3OH2C6O2H3C6O2H4C6O2H4C3HOHC3HOHC3HOHC3HOHC3HOHC3HOHC3HOC3OHC3HOC3OHC3HOC3OHC3OH2C3OH2C3OH2C3OH2C3OH2C3OH2
_chemical_formula_sum              "C288 O96 H168"
_cell_length_a       46.3928
_cell_length_b       46.3928
_cell_length_c       14.9382
_cell_angle_alpha    90
_cell_angle_beta     90
_cell_angle_gamma    120

_space_group_name_H-M_alt    "P 1"
_space_group_IT_number       1

loop_
  _space_group_symop_operation_xyz
  'x, y, z'

loop_
  _atom_site_type_symbol
  _atom_site_label
  _atom_site_symmetry_multiplicity
  _atom_site_fract_x
  _atom_site_fract_y
  _atom_site_fract_z
  _atom_site_occupancy
  C   C1        1.0  0.02115  0.26122  0.32060  1.0000
  C   C2        1.0  0.04101  0.29690  0.31208  1.0000
  O   O1        1.0  0.02872  0.31622  0.28079  1.0000
  C   C3        1.0  0.03975  0.24470  0.33628  1.0000
  H   H1        1.0  0.02816  0.21988  0.34870  1.0000
  C   C4        1.0  0.02115  0.76122  0.32060  1.0000
  C   C5        1.0  0.04101  0.79690  0.31208  1.0000
  O   O2        1.0  0.02872  0.81622  0.28079  1.0000
  C   C6        1.0  0.03975  0.74470  0.33628  1.0000
  H   H2        1.0  0.02816  0.71988  0.34870  1.0000
  H   H3        1.0  0.02330  0.31041  0.21729  1.0000
  H   H4        1.0  0.02330  0.81041  0.21729  1.0000
  C   C7        1.0  0.07465  0.26138  0.34553  1.0000
  C   C8        1.0  0.07465  0.76138  0.34553  1.0000
  C   C9        1.0  0.07544  0.31464  0.33367  1.0000
  H   H5        1.0  0.09331  0.23888  0.21041  1.0000
  C   C10       1.0  0.09458  0.34986  0.34117  1.0000
  O   O3        1.0  0.09625  0.35673  0.18092  1.0000
  H   H6        1.0  0.08386  0.36738  0.15895  1.0000
  C   C11       1.0  0.09208  0.29646  0.34717  1.0000
  C   C12       1.0  0.09276  0.24427  0.35111  1.0000
  H   H7        1.0  0.08321  0.23750  0.53028  1.0000
  C   C13       1.0  0.07544  0.81464  0.33367  1.0000
  H   H8        1.0  0.09331  0.73888  0.21041  1.0000
  C   C14       1.0  0.09458  0.84986  0.34117  1.0000
  O   O4        1.0  0.09625  0.85672  0.18092  1.0000
  H   H9        1.0  0.08386  0.86738  0.15895  1.0000
  C   C15       1.0  0.09208  0.79646  0.34717  1.0000
  C   C16       1.0  0.09276  0.74427  0.35111  1.0000
  H   H10       1.0  0.08321  0.73750  0.53028  1.0000
  C   C17       1.0  0.48506  0.24288  0.32051  1.0000
  C   C18       1.0  0.43073  0.18948  0.33304  1.0000
  C   C19       1.0  0.46519  0.20721  0.31189  1.0000
  O   O5        1.0  0.47750  0.18789  0.28078  1.0000
  H   H11       1.0  0.98290  0.19364  0.21724  1.0000
  H   H12       1.0  0.52330  0.31041  0.21729  1.0000
  H   H13       1.0  0.37206  0.18756  0.28987  1.0000
  H   H14       1.0  0.13417  0.31657  0.29159  1.0000
  C   C20       1.0  0.26229  0.24323  0.32069  1.0000
  C   C21       1.0  0.31570  0.24232  0.33305  1.0000
  C   C22       1.0  0.29796  0.25904  0.31188  1.0000
  C   C23       1.0  0.24393  0.26097  0.32071  1.0000
  C   C24       1.0  0.20826  0.24515  0.31214  1.0000
  C   C25       1.0  0.19052  0.26188  0.33341  1.0000
  O   O6        1.0  0.31726  0.29065  0.28067  1.0000
  O   O7        1.0  0.18893  0.21352  0.28111  1.0000
  H   H15       1.0  0.31148  0.29029  0.21717  1.0000
  H   H16       1.0  0.19466  0.21384  0.21758  1.0000
  H   H17       1.0  0.31757  0.18554  0.28993  1.0000
  H   H18       1.0  0.18855  0.31859  0.29052  1.0000
  C   C26       1.0  0.26201  0.02013  0.32064  1.0000
  C   C27       1.0  0.26289  0.07442  0.33358  1.0000
  C   C28       1.0  0.24619  0.03998  0.31210  1.0000
  C   C29       1.0  0.24427  0.48404  0.32055  1.0000
  C   C30       1.0  0.26008  0.46418  0.31178  1.0000
  C   C31       1.0  0.24333  0.42970  0.33274  1.0000
  O   O8        1.0  0.21458  0.02769  0.28091  1.0000
  O   O9        1.0  0.29170  0.47650  0.28065  1.0000
  H   H19       1.0  0.21493  0.52226  0.21740  1.0000
  H   H20       1.0  0.29135  0.98191  0.21713  1.0000
  H   H21       1.0  0.31964  0.13314  0.29118  1.0000
  H   H22       1.0  0.18655  0.37105  0.28954  1.0000
  C   C32       1.0  0.10446  0.23844  0.26923  1.0000
  C   C33       1.0  0.13520  0.23900  0.26387  1.0000
  C   C34       1.0  0.15532  0.24579  0.34118  1.0000
  O   O10       1.0  0.14815  0.24049  0.18107  1.0000
  H   H23       1.0  0.13761  0.21741  0.15944  1.0000
  C   C35       1.0  0.26652  0.36698  0.26814  1.0000
  C   C36       1.0  0.26608  0.39722  0.26272  1.0000
  C   C37       1.0  0.25943  0.41057  0.34020  1.0000
  H   H24       1.0  0.26615  0.35540  0.20937  1.0000
  O   O11       1.0  0.26463  0.40880  0.18008  1.0000
  H   H25       1.0  0.28767  0.42108  0.15812  1.0000
  C   C38       1.0  0.13801  0.40053  0.26854  1.0000
  C   C39       1.0  0.10780  0.36981  0.26355  1.0000
  H   H26       1.0  0.14954  0.41157  0.20958  1.0000
  C   C40       1.0  0.40163  0.26553  0.26815  1.0000
  C   C41       1.0  0.37095  0.26510  0.26285  1.0000
  C   C42       1.0  0.35093  0.25841  0.34031  1.0000
  H   H27       1.0  0.41283  0.26519  0.20933  1.0000
  O   O12       1.0  0.35791  0.26369  0.18025  1.0000
  H   H28       1.0  0.36870  0.28674  0.15833  1.0000
  C   C43       1.0  0.23949  0.13701  0.26881  1.0000
  C   C44       1.0  0.24002  0.10680  0.26368  1.0000
  C   C45       1.0  0.24680  0.09354  0.34114  1.0000
  H   H29       1.0  0.23995  0.14854  0.20988  1.0000
  O   O13       1.0  0.24150  0.09527  0.18099  1.0000
  H   H30       1.0  0.21844  0.08282  0.15921  1.0000
  C   C46       1.0  0.36803  0.10348  0.26867  1.0000
  C   C47       1.0  0.39825  0.13416  0.26319  1.0000
  C   C48       1.0  0.41160  0.15426  0.34052  1.0000
  H   H31       1.0  0.35647  0.09222  0.20991  1.0000
  O   O14       1.0  0.40984  0.14714  0.18051  1.0000
  H   H32       1.0  0.42212  0.13634  0.15867  1.0000
  C   C49       1.0  0.46645  0.25940  0.33614  1.0000
  C   C50       1.0  0.43153  0.24274  0.34470  1.0000
  C   C51       1.0  0.41406  0.20766  0.34596  1.0000
  H   H33       1.0  0.47803  0.28422  0.34857  1.0000
  O   O15       1.0  0.38013  0.19110  0.35201  1.0000
  O   O16       1.0  0.12600  0.31303  0.35363  1.0000
  C   C52       1.0  0.24578  0.20812  0.33642  1.0000
  C   C53       1.0  0.26244  0.18986  0.34491  1.0000
  C   C54       1.0  0.29753  0.20748  0.34609  1.0000
  H   H34       1.0  0.22096  0.19489  0.34893  1.0000
  O   O17       1.0  0.31409  0.19011  0.35208  1.0000
  C   C55       1.0  0.20870  0.29672  0.34643  1.0000
  C   C56       1.0  0.24379  0.31435  0.34493  1.0000
  C   C57       1.0  0.26045  0.29610  0.33626  1.0000
  O   O18       1.0  0.19214  0.31408  0.35263  1.0000
  H   H35       1.0  0.28528  0.30935  0.34850  1.0000
  C   C58       1.0  0.29714  0.03873  0.33622  1.0000
  C   C59       1.0  0.31537  0.07364  0.34535  1.0000
  C   C60       1.0  0.29772  0.09108  0.34691  1.0000
  H   H36       1.0  0.31037  0.02714  0.34865  1.0000
  O   O19       1.0  0.31508  0.12500  0.35325  1.0000
  C   C61       1.0  0.20849  0.41303  0.34570  1.0000
  C   C62       1.0  0.19088  0.43050  0.34457  1.0000
  C   C63       1.0  0.20915  0.46543  0.33624  1.0000
  O   O20       1.0  0.19112  0.37910  0.35169  1.0000
  H   H37       1.0  0.19592  0.47702  0.34879  1.0000
  C   C64       1.0  0.14210  0.24859  0.42410  1.0000
  C   C65       1.0  0.11146  0.24787  0.42957  1.0000
  O   O21       1.0  0.10382  0.25693  0.50894  1.0000
  H   H38       1.0  0.15680  0.25549  0.48016  1.0000
  C   C66       1.0  0.25658  0.39456  0.42318  1.0000
  C   C67       1.0  0.25741  0.36469  0.42870  1.0000
  C   C68       1.0  0.26092  0.34959  0.35013  1.0000
  O   O22       1.0  0.24837  0.34805  0.50819  1.0000
  H   H39       1.0  0.24983  0.40249  0.47929  1.0000
  H   H40       1.0  0.26769  0.34658  0.52908  1.0000
  C   C69       1.0  0.11066  0.36321  0.42391  1.0000
  C   C70       1.0  0.14061  0.39383  0.42890  1.0000
  C   C71       1.0  0.15567  0.41241  0.35019  1.0000
  O   O23       1.0  0.15739  0.40160  0.50815  1.0000
  H   H41       1.0  0.10291  0.34859  0.48016  1.0000
  H   H42       1.0  0.15851  0.42220  0.52937  1.0000
  C   C72       1.0  0.36414  0.25552  0.42321  1.0000
  C   C73       1.0  0.39482  0.25634  0.42865  1.0000
  C   C74       1.0  0.41343  0.25989  0.35005  1.0000
  O   O24       1.0  0.40243  0.24726  0.50806  1.0000
  H   H43       1.0  0.34947  0.24875  0.47935  1.0000
  H   H44       1.0  0.42321  0.26658  0.52904  1.0000
  C   C75       1.0  0.24959  0.10964  0.42392  1.0000
  C   C76       1.0  0.24889  0.13957  0.42908  1.0000
  C   C77       1.0  0.24533  0.15465  0.35049  1.0000
  O   O25       1.0  0.25795  0.15633  0.50837  1.0000
  H   H45       1.0  0.25648  0.10188  0.48010  1.0000
  H   H46       1.0  0.23849  0.15747  0.52969  1.0000
  C   C78       1.0  0.39554  0.14112  0.42350  1.0000
  C   C79       1.0  0.36569  0.11042  0.42913  1.0000
  C   C80       1.0  0.35060  0.09175  0.35063  1.0000
  O   O26       1.0  0.34904  0.10287  0.50859  1.0000
  H   H47       1.0  0.40346  0.15583  0.47955  1.0000
  H   H48       1.0  0.34754  0.08207  0.52959  1.0000
  C   C81       1.0  0.48506  0.74288  0.32051  1.0000
  C   C82       1.0  0.43072  0.68948  0.33304  1.0000
  C   C83       1.0  0.46519  0.70721  0.31189  1.0000
  O   O27       1.0  0.47750  0.68789  0.28078  1.0000
  H   H49       1.0  0.98290  0.69364  0.21724  1.0000
  H   H50       1.0  0.52330  0.81041  0.21729  1.0000
  H   H51       1.0  0.37206  0.68756  0.28987  1.0000
  H   H52       1.0  0.13417  0.81657  0.29159  1.0000
  C   C84       1.0  0.26229  0.74323  0.32069  1.0000
  C   C85       1.0  0.31570  0.74232  0.33305  1.0000
  C   C86       1.0  0.29796  0.75904  0.31188  1.0000
  C   C87       1.0  0.24393  0.76097  0.32071  1.0000
  C   C88       1.0  0.20826  0.74515  0.31214  1.0000
  C   C89       1.0  0.19052  0.76187  0.33341  1.0000
  O   O28       1.0  0.31726  0.79065  0.28067  1.0000
  O   O29       1.0  0.18893  0.71351  0.28111  1.0000
  H   H53       1.0  0.31148  0.79029  0.21717  1.0000
  H   H54       1.0  0.19466  0.71384  0.21758  1.0000
  H   H55       1.0  0.31757  0.68554  0.28993  1.0000
  H   H56       1.0  0.18855  0.81859  0.29052  1.0000
  C   C90       1.0  0.26201  0.52013  0.32064  1.0000
  C   C91       1.0  0.26289  0.57442  0.33358  1.0000
  C   C92       1.0  0.24619  0.53998  0.31210  1.0000
  C   C93       1.0  0.24427  0.98404  0.32055  1.0000
  C   C94       1.0  0.26008  0.96418  0.31178  1.0000
  C   C95       1.0  0.24333  0.92970  0.33274  1.0000
  O   O30       1.0  0.21458  0.52768  0.28091  1.0000
  O   O31       1.0  0.29170  0.97650  0.28065  1.0000
  H   H57       1.0  0.21493  0.02226  0.21740  1.0000
  H   H58       1.0  0.29135  0.48191  0.21713  1.0000
  H   H59       1.0  0.31964  0.63314  0.29118  1.0000
  H   H60       1.0  0.18655  0.87105  0.28954  1.0000
  C   C96       1.0  0.10446  0.73844  0.26923  1.0000
  C   C97       1.0  0.13520  0.73900  0.26387  1.0000
  C   C98       1.0  0.15532  0.74579  0.34118  1.0000
  O   O32       1.0  0.14815  0.74048  0.18107  1.0000
  H   H61       1.0  0.13761  0.71741  0.15944  1.0000
  C   C99       1.0  0.26652  0.86698  0.26814  1.0000
  C   C100      1.0  0.26608  0.89722  0.26272  1.0000
  C   C101      1.0  0.25943  0.91057  0.34020  1.0000
  H   H62       1.0  0.26615  0.85540  0.20937  1.0000
  O   O33       1.0  0.26463  0.90880  0.18008  1.0000
  H   H63       1.0  0.28767  0.92108  0.15812  1.0000
  C   C102      1.0  0.13801  0.90054  0.26854  1.0000
  C   C103      1.0  0.10780  0.86981  0.26355  1.0000
  H   H64       1.0  0.14955  0.91157  0.20958  1.0000
  C   C104      1.0  0.40163  0.76553  0.26815  1.0000
  C   C105      1.0  0.37095  0.76510  0.26285  1.0000
  C   C106      1.0  0.35093  0.75841  0.34031  1.0000
  H   H65       1.0  0.41283  0.76519  0.20933  1.0000
  O   O34       1.0  0.35791  0.76369  0.18025  1.0000
  H   H66       1.0  0.36870  0.78674  0.15833  1.0000
  C   C107      1.0  0.23949  0.63701  0.26881  1.0000
  C   C108      1.0  0.24002  0.60680  0.26368  1.0000
  C   C109      1.0  0.24680  0.59354  0.34114  1.0000
  H   H67       1.0  0.23995  0.64855  0.20988  1.0000
  O   O35       1.0  0.24150  0.59527  0.18099  1.0000
  H   H68       1.0  0.21844  0.58282  0.15921  1.0000
  C   C110      1.0  0.36803  0.60347  0.26867  1.0000
  C   C111      1.0  0.39825  0.63416  0.26319  1.0000
  C   C112      1.0  0.41160  0.65425  0.34052  1.0000
  H   H69       1.0  0.35647  0.59221  0.20991  1.0000
  O   O36       1.0  0.40984  0.64714  0.18051  1.0000
  H   H70       1.0  0.42211  0.63634  0.15867  1.0000
  C   C113      1.0  0.46645  0.75940  0.33614  1.0000
  C   C114      1.0  0.43153  0.74275  0.34470  1.0000
  C   C115      1.0  0.41405  0.70766  0.34596  1.0000
  H   H71       1.0  0.47803  0.78422  0.34857  1.0000
  O   O37       1.0  0.38013  0.69110  0.35201  1.0000
  O   O38       1.0  0.12600  0.81303  0.35363  1.0000
  C   C116      1.0  0.24578  0.70812  0.33642  1.0000
  C   C117      1.0  0.26244  0.68986  0.34491  1.0000
  C   C118      1.0  0.29753  0.70748  0.34609  1.0000
  H   H72       1.0  0.22096  0.69489  0.34893  1.0000
  O   O39       1.0  0.31409  0.69011  0.35208  1.0000
  C   C119      1.0  0.20870  0.79672  0.34643  1.0000
  C   C120      1.0  0.24379  0.81435  0.34493  1.0000
  C   C121      1.0  0.26045  0.79610  0.33626  1.0000
  O   O40       1.0  0.19214  0.81408  0.35263  1.0000
  H   H73       1.0  0.28528  0.80935  0.34850  1.0000
  C   C122      1.0  0.29714  0.53873  0.33622  1.0000
  C   C123      1.0  0.31537  0.57363  0.34535  1.0000
  C   C124      1.0  0.29772  0.59108  0.34691  1.0000
  H   H74       1.0  0.31037  0.52714  0.34865  1.0000
  O   O41       1.0  0.31508  0.62500  0.35325  1.0000
  C   C125      1.0  0.20849  0.91303  0.34570  1.0000
  C   C126      1.0  0.19088  0.93050  0.34457  1.0000
  C   C127      1.0  0.20915  0.96543  0.33624  1.0000
  O   O42       1.0  0.19112  0.87910  0.35169  1.0000
  H   H75       1.0  0.19592  0.97702  0.34879  1.0000
  C   C128      1.0  0.14210  0.74859  0.42410  1.0000
  C   C129      1.0  0.11146  0.74786  0.42957  1.0000
  O   O43       1.0  0.10382  0.75693  0.50894  1.0000
  H   H76       1.0  0.15680  0.75549  0.48016  1.0000
  C   C130      1.0  0.25658  0.89456  0.42318  1.0000
  C   C131      1.0  0.25741  0.86469  0.42870  1.0000
  C   C132      1.0  0.26092  0.84959  0.35013  1.0000
  O   O44       1.0  0.24837  0.84805  0.50819  1.0000
  H   H77       1.0  0.24983  0.90249  0.47929  1.0000
  H   H78       1.0  0.26769  0.84657  0.52908  1.0000
  C   C133      1.0  0.11066  0.86321  0.42391  1.0000
  C   C134      1.0  0.14060  0.89383  0.42890  1.0000
  C   C135      1.0  0.15567  0.91241  0.35019  1.0000
  O   O45       1.0  0.15739  0.90160  0.50815  1.0000
  H   H79       1.0  0.10291  0.84859  0.48016  1.0000
  H   H80       1.0  0.15851  0.92220  0.52937  1.0000
  C   C136      1.0  0.36414  0.75552  0.42321  1.0000
  C   C137      1.0  0.39482  0.75634  0.42865  1.0000
  C   C138      1.0  0.41343  0.75988  0.35005  1.0000
  O   O46       1.0  0.40243  0.74726  0.50806  1.0000
  H   H81       1.0  0.34948  0.74875  0.47935  1.0000
  H   H82       1.0  0.42321  0.76658  0.52904  1.0000
  C   C139      1.0  0.24959  0.60964  0.42392  1.0000
  C   C140      1.0  0.24889  0.63957  0.42908  1.0000
  C   C141      1.0  0.24533  0.65465  0.35049  1.0000
  O   O47       1.0  0.25795  0.65633  0.50837  1.0000
  H   H83       1.0  0.25648  0.60188  0.48010  1.0000
  H   H84       1.0  0.23849  0.65747  0.52969  1.0000
  C   C142      1.0  0.39554  0.64111  0.42350  1.0000
  C   C143      1.0  0.36569  0.61042  0.42913  1.0000
  C   C144      1.0  0.35060  0.59175  0.35063  1.0000
  O   O48       1.0  0.34904  0.60287  0.50859  1.0000
  H   H85       1.0  0.40346  0.65582  0.47955  1.0000
  H   H86       1.0  0.34754  0.58207  0.52959  1.0000
  C   C145      1.0  0.98506  0.24288  0.32051  1.0000
  C   C146      1.0  0.93072  0.18948  0.33304  1.0000
  C   C147      1.0  0.96519  0.20721  0.31189  1.0000
  C   C148      1.0  0.52115  0.26122  0.32060  1.0000
  C   C149      1.0  0.54101  0.29690  0.31208  1.0000
  C   C150      1.0  0.57544  0.31464  0.33367  1.0000
  O   O49       1.0  0.97750  0.18789  0.28078  1.0000
  O   O50       1.0  0.52872  0.31622  0.28079  1.0000
  H   H87       1.0  0.48290  0.19364  0.21724  1.0000
  H   H88       1.0  0.87206  0.18756  0.28987  1.0000
  H   H89       1.0  0.63417  0.31657  0.29159  1.0000
  C   C151      1.0  0.76229  0.24323  0.32069  1.0000
  C   C152      1.0  0.81570  0.24232  0.33305  1.0000
  C   C153      1.0  0.79796  0.25904  0.31188  1.0000
  C   C154      1.0  0.74393  0.26097  0.32071  1.0000
  C   C155      1.0  0.70826  0.24515  0.31214  1.0000
  C   C156      1.0  0.69052  0.26188  0.33341  1.0000
  O   O51       1.0  0.81726  0.29065  0.28067  1.0000
  O   O52       1.0  0.68893  0.21352  0.28111  1.0000
  H   H90       1.0  0.81147  0.29029  0.21717  1.0000
  H   H91       1.0  0.69466  0.21384  0.21758  1.0000
  H   H92       1.0  0.81757  0.18554  0.28993  1.0000
  H   H93       1.0  0.68855  0.31859  0.29052  1.0000
  C   C157      1.0  0.76201  0.02013  0.32064  1.0000
  C   C158      1.0  0.76289  0.07442  0.33358  1.0000
  C   C159      1.0  0.74619  0.03998  0.31210  1.0000
  C   C160      1.0  0.74427  0.48404  0.32055  1.0000
  C   C161      1.0  0.76008  0.46418  0.31178  1.0000
  C   C162      1.0  0.74333  0.42970  0.33274  1.0000
  O   O53       1.0  0.71458  0.02769  0.28091  1.0000
  O   O54       1.0  0.79170  0.47650  0.28065  1.0000
  H   H94       1.0  0.71493  0.52226  0.21740  1.0000
  H   H95       1.0  0.79135  0.98191  0.21713  1.0000
  H   H96       1.0  0.81964  0.13314  0.29118  1.0000
  H   H97       1.0  0.68655  0.37105  0.28954  1.0000
  C   C163      1.0  0.60445  0.23844  0.26923  1.0000
  C   C164      1.0  0.63520  0.23900  0.26387  1.0000
  C   C165      1.0  0.65532  0.24579  0.34118  1.0000
  H   H98       1.0  0.59331  0.23888  0.21041  1.0000
  O   O55       1.0  0.64815  0.24049  0.18107  1.0000
  H   H99       1.0  0.63761  0.21741  0.15944  1.0000
  C   C166      1.0  0.76652  0.36698  0.26814  1.0000
  C   C167      1.0  0.76608  0.39722  0.26272  1.0000
  C   C168      1.0  0.75943  0.41057  0.34020  1.0000
  H   H100      1.0  0.76615  0.35540  0.20937  1.0000
  O   O56       1.0  0.76463  0.40880  0.18008  1.0000
  H   H101      1.0  0.78767  0.42108  0.15812  1.0000
  C   C169      1.0  0.63801  0.40053  0.26854  1.0000
  C   C170      1.0  0.60780  0.36981  0.26355  1.0000
  C   C171      1.0  0.59458  0.34986  0.34117  1.0000
  H   H102      1.0  0.64955  0.41157  0.20958  1.0000
  O   O57       1.0  0.59625  0.35673  0.18092  1.0000
  H   H103      1.0  0.58386  0.36738  0.15895  1.0000
  C   C172      1.0  0.90163  0.26553  0.26815  1.0000
  C   C173      1.0  0.87095  0.26510  0.26285  1.0000
  C   C174      1.0  0.85093  0.25841  0.34031  1.0000
  H   H104      1.0  0.91283  0.26519  0.20933  1.0000
  O   O58       1.0  0.85791  0.26369  0.18025  1.0000
  H   H105      1.0  0.86870  0.28674  0.15833  1.0000
  C   C175      1.0  0.73949  0.13701  0.26881  1.0000
  C   C176      1.0  0.74002  0.10680  0.26368  1.0000
  C   C177      1.0  0.74681  0.09354  0.34114  1.0000
  H   H106      1.0  0.73995  0.14854  0.20988  1.0000
  O   O59       1.0  0.74150  0.09527  0.18099  1.0000
  H   H107      1.0  0.71844  0.08282  0.15921  1.0000
  C   C178      1.0  0.86803  0.10348  0.26867  1.0000
  C   C179      1.0  0.89825  0.13416  0.26319  1.0000
  C   C180      1.0  0.91160  0.15426  0.34052  1.0000
  H   H108      1.0  0.85647  0.09222  0.20991  1.0000
  O   O60       1.0  0.90984  0.14714  0.18051  1.0000
  H   H109      1.0  0.92211  0.13634  0.15867  1.0000
  C   C181      1.0  0.96645  0.25940  0.33614  1.0000
  C   C182      1.0  0.93153  0.24274  0.34470  1.0000
  C   C183      1.0  0.91405  0.20766  0.34596  1.0000
  H   H110      1.0  0.97803  0.28422  0.34857  1.0000
  O   O61       1.0  0.88013  0.19110  0.35201  1.0000
  C   C184      1.0  0.59208  0.29646  0.34717  1.0000
  C   C185      1.0  0.57464  0.26138  0.34553  1.0000
  C   C186      1.0  0.53975  0.24470  0.33628  1.0000
  O   O62       1.0  0.62600  0.31303  0.35363  1.0000
  H   H111      1.0  0.52816  0.21988  0.34870  1.0000
  C   C187      1.0  0.74578  0.20812  0.33642  1.0000
  C   C188      1.0  0.76244  0.18986  0.34491  1.0000
  C   C189      1.0  0.79753  0.20748  0.34609  1.0000
  H   H112      1.0  0.72096  0.19489  0.34893  1.0000
  O   O63       1.0  0.81409  0.19011  0.35208  1.0000
  C   C190      1.0  0.70870  0.29672  0.34643  1.0000
  C   C191      1.0  0.74379  0.31435  0.34493  1.0000
  C   C192      1.0  0.76045  0.29610  0.33626  1.0000
  O   O64       1.0  0.69214  0.31408  0.35263  1.0000
  H   H113      1.0  0.78528  0.30935  0.34850  1.0000
  C   C193      1.0  0.79714  0.03873  0.33622  1.0000
  C   C194      1.0  0.81537  0.07364  0.34535  1.0000
  C   C195      1.0  0.79772  0.09108  0.34691  1.0000
  H   H114      1.0  0.81037  0.02714  0.34865  1.0000
  O   O65       1.0  0.81508  0.12500  0.35325  1.0000
  C   C196      1.0  0.70849  0.41303  0.34570  1.0000
  C   C197      1.0  0.69088  0.43050  0.34457  1.0000
  C   C198      1.0  0.70915  0.46543  0.33624  1.0000
  O   O66       1.0  0.69112  0.37910  0.35169  1.0000
  H   H115      1.0  0.69592  0.47702  0.34879  1.0000
  C   C199      1.0  0.64210  0.24859  0.42410  1.0000
  C   C200      1.0  0.61146  0.24787  0.42957  1.0000
  C   C201      1.0  0.59276  0.24427  0.35111  1.0000
  O   O67       1.0  0.60382  0.25693  0.50894  1.0000
  H   H116      1.0  0.65680  0.25549  0.48016  1.0000
  H   H117      1.0  0.58321  0.23750  0.53028  1.0000
  C   C202      1.0  0.75658  0.39456  0.42318  1.0000
  C   C203      1.0  0.75741  0.36469  0.42870  1.0000
  C   C204      1.0  0.76092  0.34959  0.35013  1.0000
  O   O68       1.0  0.74837  0.34805  0.50819  1.0000
  H   H118      1.0  0.74983  0.40249  0.47929  1.0000
  H   H119      1.0  0.76769  0.34658  0.52908  1.0000
  C   C205      1.0  0.61066  0.36321  0.42391  1.0000
  C   C206      1.0  0.64060  0.39383  0.42890  1.0000
  C   C207      1.0  0.65567  0.41241  0.35019  1.0000
  O   O69       1.0  0.65739  0.40160  0.50815  1.0000
  H   H120      1.0  0.60291  0.34859  0.48016  1.0000
  H   H121      1.0  0.65851  0.42220  0.52937  1.0000
  C   C208      1.0  0.86414  0.25552  0.42321  1.0000
  C   C209      1.0  0.89482  0.25634  0.42865  1.0000
  C   C210      1.0  0.91343  0.25989  0.35005  1.0000
  O   O70       1.0  0.90243  0.24726  0.50806  1.0000
  H   H122      1.0  0.84947  0.24875  0.47935  1.0000
  H   H123      1.0  0.92321  0.26658  0.52904  1.0000
  C   C211      1.0  0.74959  0.10964  0.42392  1.0000
  C   C212      1.0  0.74889  0.13957  0.42908  1.0000
  C   C213      1.0  0.74533  0.15465  0.35049  1.0000
  O   O71       1.0  0.75795  0.15633  0.50837  1.0000
  H   H124      1.0  0.75648  0.10188  0.48010  1.0000
  H   H125      1.0  0.73849  0.15747  0.52969  1.0000
  C   C214      1.0  0.89554  0.14112  0.42350  1.0000
  C   C215      1.0  0.86569  0.11042  0.42913  1.0000
  C   C216      1.0  0.85060  0.09175  0.35063  1.0000
  O   O72       1.0  0.84904  0.10287  0.50859  1.0000
  H   H126      1.0  0.90346  0.15583  0.47955  1.0000
  H   H127      1.0  0.84754  0.08207  0.52959  1.0000
  C   C217      1.0  0.98506  0.74288  0.32051  1.0000
  C   C218      1.0  0.93073  0.68948  0.33304  1.0000
  C   C219      1.0  0.96519  0.70721  0.31189  1.0000
  C   C220      1.0  0.52115  0.76122  0.32060  1.0000
  C   C221      1.0  0.54101  0.79690  0.31208  1.0000
  C   C222      1.0  0.57544  0.81464  0.33367  1.0000
  O   O73       1.0  0.97750  0.68789  0.28078  1.0000
  O   O74       1.0  0.52872  0.81622  0.28079  1.0000
  H   H128      1.0  0.48290  0.69364  0.21724  1.0000
  H   H129      1.0  0.87206  0.68756  0.28987  1.0000
  H   H130      1.0  0.63417  0.81657  0.29159  1.0000
  C   C223      1.0  0.76229  0.74323  0.32069  1.0000
  C   C224      1.0  0.81570  0.74232  0.33305  1.0000
  C   C225      1.0  0.79796  0.75904  0.31188  1.0000
  C   C226      1.0  0.74393  0.76097  0.32071  1.0000
  C   C227      1.0  0.70826  0.74515  0.31214  1.0000
  C   C228      1.0  0.69052  0.76187  0.33341  1.0000
  O   O75       1.0  0.81726  0.79065  0.28067  1.0000
  O   O76       1.0  0.68893  0.71351  0.28111  1.0000
  H   H131      1.0  0.81147  0.79029  0.21717  1.0000
  H   H132      1.0  0.69466  0.71384  0.21758  1.0000
  H   H133      1.0  0.81757  0.68554  0.28993  1.0000
  H   H134      1.0  0.68855  0.81859  0.29052  1.0000
  C   C229      1.0  0.76201  0.52013  0.32064  1.0000
  C   C230      1.0  0.76289  0.57442  0.33358  1.0000
  C   C231      1.0  0.74619  0.53998  0.31210  1.0000
  C   C232      1.0  0.74427  0.98404  0.32055  1.0000
  C   C233      1.0  0.76008  0.96418  0.31178  1.0000
  C   C234      1.0  0.74333  0.92970  0.33274  1.0000
  O   O77       1.0  0.71458  0.52768  0.28091  1.0000
  O   O78       1.0  0.79170  0.97650  0.28065  1.0000
  H   H135      1.0  0.71493  0.02226  0.21740  1.0000
  H   H136      1.0  0.79135  0.48191  0.21713  1.0000
  H   H137      1.0  0.81964  0.63314  0.29118  1.0000
  H   H138      1.0  0.68655  0.87105  0.28954  1.0000
  C   C235      1.0  0.60445  0.73844  0.26923  1.0000
  C   C236      1.0  0.63520  0.73900  0.26387  1.0000
  C   C237      1.0  0.65532  0.74579  0.34118  1.0000
  H   H139      1.0  0.59331  0.73888  0.21041  1.0000
  O   O79       1.0  0.64815  0.74048  0.18107  1.0000
  H   H140      1.0  0.63761  0.71741  0.15944  1.0000
  C   C238      1.0  0.76652  0.86698  0.26814  1.0000
  C   C239      1.0  0.76608  0.89722  0.26272  1.0000
  C   C240      1.0  0.75943  0.91057  0.34020  1.0000
  H   H141      1.0  0.76615  0.85540  0.20937  1.0000
  O   O80       1.0  0.76463  0.90880  0.18008  1.0000
  H   H142      1.0  0.78767  0.92108  0.15812  1.0000
  C   C241      1.0  0.63801  0.90054  0.26854  1.0000
  C   C242      1.0  0.60780  0.86981  0.26355  1.0000
  C   C243      1.0  0.59458  0.84986  0.34117  1.0000
  H   H143      1.0  0.64955  0.91157  0.20958  1.0000
  O   O81       1.0  0.59625  0.85672  0.18092  1.0000
  H   H144      1.0  0.58386  0.86738  0.15895  1.0000
  C   C244      1.0  0.90163  0.76553  0.26815  1.0000
  C   C245      1.0  0.87096  0.76510  0.26285  1.0000
  C   C246      1.0  0.85093  0.75841  0.34031  1.0000
  H   H145      1.0  0.91283  0.76519  0.20933  1.0000
  O   O82       1.0  0.85791  0.76369  0.18025  1.0000
  H   H146      1.0  0.86870  0.78674  0.15833  1.0000
  C   C247      1.0  0.73949  0.63701  0.26881  1.0000
  C   C248      1.0  0.74002  0.60680  0.26368  1.0000
  C   C249      1.0  0.74681  0.59354  0.34114  1.0000
  H   H147      1.0  0.73995  0.64855  0.20988  1.0000
  O   O83       1.0  0.74150  0.59527  0.18099  1.0000
  H   H148      1.0  0.71844  0.58282  0.15921  1.0000
  C   C250      1.0  0.86803  0.60347  0.26867  1.0000
  C   C251      1.0  0.89825  0.63416  0.26319  1.0000
  C   C252      1.0  0.91160  0.65425  0.34052  1.0000
  H   H149      1.0  0.85647  0.59221  0.20991  1.0000
  O   O84       1.0  0.90984  0.64714  0.18051  1.0000
  H   H150      1.0  0.92212  0.63634  0.15867  1.0000
  C   C253      1.0  0.96645  0.75940  0.33614  1.0000
  C   C254      1.0  0.93153  0.74275  0.34470  1.0000
  C   C255      1.0  0.91406  0.70766  0.34596  1.0000
  H   H151      1.0  0.97803  0.78422  0.34857  1.0000
  O   O85       1.0  0.88013  0.69110  0.35201  1.0000
  C   C256      1.0  0.59208  0.79646  0.34717  1.0000
  C   C257      1.0  0.57465  0.76138  0.34553  1.0000
  C   C258      1.0  0.53975  0.74470  0.33628  1.0000
  O   O86       1.0  0.62600  0.81303  0.35363  1.0000
  H   H152      1.0  0.52816  0.71988  0.34870  1.0000
  C   C259      1.0  0.74578  0.70812  0.33642  1.0000
  C   C260      1.0  0.76244  0.68986  0.34491  1.0000
  C   C261      1.0  0.79753  0.70748  0.34609  1.0000
  H   H153      1.0  0.72096  0.69489  0.34893  1.0000
  O   O87       1.0  0.81409  0.69011  0.35208  1.0000
  C   C262      1.0  0.70870  0.79672  0.34643  1.0000
  C   C263      1.0  0.74379  0.81435  0.34493  1.0000
  C   C264      1.0  0.76045  0.79610  0.33626  1.0000
  O   O88       1.0  0.69214  0.81408  0.35263  1.0000
  H   H154      1.0  0.78528  0.80935  0.34850  1.0000
  C   C265      1.0  0.79714  0.53873  0.33622  1.0000
  C   C266      1.0  0.81537  0.57363  0.34535  1.0000
  C   C267      1.0  0.79772  0.59108  0.34691  1.0000
  H   H155      1.0  0.81037  0.52714  0.34865  1.0000
  O   O89       1.0  0.81508  0.62500  0.35325  1.0000
  C   C268      1.0  0.70849  0.91303  0.34570  1.0000
  C   C269      1.0  0.69088  0.93050  0.34457  1.0000
  C   C270      1.0  0.70915  0.96543  0.33624  1.0000
  O   O90       1.0  0.69112  0.87910  0.35169  1.0000
  H   H156      1.0  0.69592  0.97702  0.34879  1.0000
  C   C271      1.0  0.64210  0.74859  0.42410  1.0000
  C   C272      1.0  0.61146  0.74786  0.42957  1.0000
  C   C273      1.0  0.59276  0.74427  0.35111  1.0000
  O   O91       1.0  0.60382  0.75693  0.50894  1.0000
  H   H157      1.0  0.65680  0.75549  0.48016  1.0000
  H   H158      1.0  0.58321  0.73750  0.53028  1.0000
  C   C274      1.0  0.75658  0.89456  0.42318  1.0000
  C   C275      1.0  0.75741  0.86469  0.42870  1.0000
  C   C276      1.0  0.76092  0.84959  0.35013  1.0000
  O   O92       1.0  0.74837  0.84805  0.50819  1.0000
  H   H159      1.0  0.74983  0.90249  0.47929  1.0000
  H   H160      1.0  0.76769  0.84657  0.52908  1.0000
  C   C277      1.0  0.61066  0.86321  0.42391  1.0000
  C   C278      1.0  0.64060  0.89383  0.42890  1.0000
  C   C279      1.0  0.65567  0.91241  0.35019  1.0000
  O   O93       1.0  0.65739  0.90160  0.50815  1.0000
  H   H161      1.0  0.60291  0.84859  0.48016  1.0000
  H   H162      1.0  0.65851  0.92220  0.52937  1.0000
  C   C280      1.0  0.86414  0.75552  0.42321  1.0000
  C   C281      1.0  0.89482  0.75634  0.42865  1.0000
  C   C282      1.0  0.91343  0.75988  0.35005  1.0000
  O   O94       1.0  0.90243  0.74726  0.50806  1.0000
  H   H163      1.0  0.84947  0.74875  0.47935  1.0000
  H   H164      1.0  0.92321  0.76658  0.52904  1.0000
  C   C283      1.0  0.74959  0.60964  0.42392  1.0000
  C   C284      1.0  0.74889  0.63957  0.42908  1.0000
  C   C285      1.0  0.74533  0.65465  0.35049  1.0000
  O   O95       1.0  0.75795  0.65633  0.50837  1.0000
  H   H165      1.0  0.75648  0.60188  0.48010  1.0000
  H   H166      1.0  0.73849  0.65747  0.52969  1.0000
  C   C286      1.0  0.89554  0.64111  0.42350  1.0000
  C   C287      1.0  0.86569  0.61042  0.42913  1.0000
  C   C288      1.0  0.85060  0.59175  0.35063  1.0000
  O   O96       1.0  0.84904  0.60287  0.50859  1.0000
  H   H167      1.0  0.90345  0.65582  0.47955  1.0000
  H   H168      1.0  0.84754  0.58207  0.52959  1.0000
