data_image0
_chemical_formula_structural       C2NC2OHNCHNCHNCHC2NC2OHC2NC2OHC2NC2OHC2NC2OHNCHNCHC2NC2OHC2NC2OHNCHNCHC2NC2OHC2NC2OHNCHNCHC2NC2OHC2NC2OHNCHNCHNCHC2NC2OHC6H3C6H3C6H3C6H3C6H3C6H3C6H3C6H3C6H3C6H3C6H3C6H3C6H3C6H3C6H3C6H3NCHC2NC2OHC2NC2OHC2NC2OHNCHNCHNCHNCHC2NC2OHC2NC2OHNCHNCHC2NC2OHC2NC2OHNCHNCHC2NC2OHC2NC2OHNCHNCHC2NC2OHC2NC2OHC2NC2OHNCH
_chemical_formula_sum              "C216 N48 O24 H96"
_cell_length_a       54.636
_cell_length_b       28.1691
_cell_length_c       14.8679
_cell_angle_alpha    90
_cell_angle_beta     90
_cell_angle_gamma    90

_space_group_name_H-M_alt    "P 1"
_space_group_IT_number       1

loop_
  _space_group_symop_operation_xyz
  'x, y, z'

loop_
  _atom_site_type_symbol
  _atom_site_label
  _atom_site_symmetry_multiplicity
  _atom_site_fract_x
  _atom_site_fract_y
  _atom_site_fract_z
  _atom_site_occupancy
  C   C1        1.0  0.51776  0.55055  0.34142  1.0000
  C   C2        1.0  0.49320  0.46232  0.34201  1.0000
  N   N1        1.0  0.51461  0.46967  0.29723  1.0000
  C   C3        1.0  0.52747  0.51107  0.29359  1.0000
  C   C4        1.0  0.54813  0.51306  0.23970  1.0000
  O   O1        1.0  0.55694  0.47637  0.20997  1.0000
  H   H1        1.0  0.54936  0.54097  0.19930  1.0000
  N   N2        1.0  0.01286  0.04016  0.29628  1.0000
  C   C5        1.0  0.02542  0.99861  0.29295  1.0000
  H   H2        1.0  0.04029  0.99585  0.25168  1.0000
  N   N3        1.0  0.41246  0.31618  0.29133  1.0000
  C   C6        1.0  0.38908  0.30054  0.28524  1.0000
  H   H3        1.0  0.38528  0.27261  0.24372  1.0000
  N   N4        1.0  0.60401  0.64006  0.30680  1.0000
  C   C7        1.0  0.62845  0.64912  0.30201  1.0000
  H   H4        1.0  0.63905  0.62932  0.25966  1.0000
  C   C8        1.0  0.08792  0.84723  0.32372  1.0000
  C   C9        1.0  0.13820  0.82390  0.33246  1.0000
  N   N5        1.0  0.12218  0.80013  0.27899  1.0000
  C   C10       1.0  0.09785  0.80984  0.27026  1.0000
  C   C11       1.0  0.08433  0.78343  0.20910  1.0000
  O   O2        1.0  0.09401  0.75089  0.16788  1.0000
  H   H5        1.0  0.07148  0.80083  0.17543  1.0000
  C   C12       1.0  0.92027  0.15901  0.33987  1.0000
  C   C13       1.0  0.87074  0.18877  0.34866  1.0000
  N   N6        1.0  0.87815  0.15153  0.29699  1.0000
  C   C14       1.0  0.90167  0.13516  0.28993  1.0000
  C   C15       1.0  0.90638  0.09904  0.22937  1.0000
  O   O3        1.0  0.88956  0.07634  0.19629  1.0000
  H   H6        1.0  0.92083  0.10296  0.18958  1.0000
  C   C16       1.0  0.50427  0.29039  0.31925  1.0000
  C   C17       1.0  0.53518  0.21123  0.31459  1.0000
  N   N7        1.0  0.51646  0.21712  0.25542  1.0000
  C   C18       1.0  0.50114  0.25503  0.25204  1.0000
  C   C19       1.0  0.48335  0.25632  0.18564  1.0000
  O   O4        1.0  0.48124  0.22352  0.13230  1.0000
  H   H7        1.0  0.47891  0.28790  0.16094  1.0000
  C   C20       1.0  0.50317  0.72132  0.31420  1.0000
  C   C21       1.0  0.47217  0.80043  0.31426  1.0000
  N   N8        1.0  0.49007  0.79426  0.25172  1.0000
  C   C22       1.0  0.50533  0.75631  0.24585  1.0000
  C   C23       1.0  0.52257  0.75488  0.17737  1.0000
  O   O5        1.0  0.52270  0.78625  0.12046  1.0000
  H   H8        1.0  0.52740  0.72319  0.15453  1.0000
  N   N9        1.0  0.98543  0.78296  0.30863  1.0000
  C   C24       1.0  0.96961  0.74575  0.30858  1.0000
  H   H9        1.0  0.95729  0.74238  0.25731  1.0000
  N   N10       1.0  0.02349  0.22459  0.30375  1.0000
  C   C25       1.0  0.03933  0.26178  0.30357  1.0000
  H   H10       1.0  0.05194  0.26470  0.25315  1.0000
  C   C26       1.0  0.31142  0.19020  0.32565  1.0000
  C   C27       1.0  0.30487  0.09043  0.33480  1.0000
  N   N11       1.0  0.32103  0.11141  0.27781  1.0000
  C   C28       1.0  0.32478  0.15896  0.26824  1.0000
  C   C29       1.0  0.34112  0.17389  0.20277  1.0000
  O   O6        1.0  0.35325  0.14515  0.16020  1.0000
  H   H11       1.0  0.33687  0.20318  0.16909  1.0000
  C   C30       1.0  0.69755  0.82031  0.32761  1.0000
  C   C31       1.0  0.70476  0.92008  0.32983  1.0000
  N   N12       1.0  0.68846  0.89819  0.27443  1.0000
  C   C32       1.0  0.68435  0.85062  0.26811  1.0000
  C   C33       1.0  0.66771  0.83462  0.20447  1.0000
  O   O7        1.0  0.65616  0.86329  0.15953  1.0000
  H   H12       1.0  0.67180  0.80477  0.17254  1.0000
  N   N13       1.0  0.21434  0.66969  0.30121  1.0000
  C   C34       1.0  0.21881  0.62199  0.29884  1.0000
  H   H13       1.0  0.23123  0.60891  0.25392  1.0000
  N   N14       1.0  0.79478  0.34215  0.30419  1.0000
  C   C35       1.0  0.79058  0.38985  0.29905  1.0000
  H   H14       1.0  0.77864  0.40259  0.25203  1.0000
  C   C36       1.0  0.24439  0.42891  0.33309  1.0000
  C   C37       1.0  0.28184  0.35860  0.33861  1.0000
  N   N15       1.0  0.28446  0.40086  0.29494  1.0000
  C   C38       1.0  0.26731  0.43617  0.28939  1.0000
  C   C39       1.0  0.27251  0.47531  0.23666  1.0000
  O   O8        1.0  0.29340  0.48259  0.21050  1.0000
  H   H15       1.0  0.25954  0.48600  0.19456  1.0000
  C   C40       1.0  0.76456  0.58236  0.33670  1.0000
  C   C41       1.0  0.72717  0.65249  0.33965  1.0000
  N   N16       1.0  0.72466  0.61017  0.29618  1.0000
  C   C42       1.0  0.74183  0.57489  0.29177  1.0000
  C   C43       1.0  0.73696  0.53556  0.23891  1.0000
  O   O9        1.0  0.71608  0.52870  0.21216  1.0000
  H   H16       1.0  0.74993  0.52566  0.19629  1.0000
  N   N17       1.0  0.26683  0.88671  0.30487  1.0000
  C   C44       1.0  0.24967  0.85198  0.30102  1.0000
  H   H17       1.0  0.25335  0.82186  0.26526  1.0000
  N   N18       1.0  0.74213  0.12489  0.30598  1.0000
  C   C45       1.0  0.75926  0.15969  0.30209  1.0000
  H   H18       1.0  0.75558  0.18974  0.26618  1.0000
  C   C46       1.0  0.10689  0.40990  0.34724  1.0000
  C   C47       1.0  0.15472  0.44646  0.34920  1.0000
  N   N19       1.0  0.14769  0.41206  0.29028  1.0000
  C   C48       1.0  0.12481  0.39248  0.28603  1.0000
  C   C49       1.0  0.11977  0.35974  0.21900  1.0000
  O   O10       1.0  0.13590  0.34701  0.16734  1.0000
  H   H19       1.0  0.10314  0.36014  0.19221  1.0000
  C   C50       1.0  0.90284  0.59761  0.32477  1.0000
  C   C51       1.0  0.85432  0.56541  0.33022  1.0000
  N   N20       1.0  0.87065  0.54869  0.26923  1.0000
  C   C52       1.0  0.89427  0.56350  0.26130  1.0000
  C   C53       1.0  0.90867  0.54408  0.19372  1.0000
  O   O11       1.0  0.89950  0.51659  0.13965  1.0000
  H   H20       1.0  0.92181  0.56434  0.16847  1.0000
  N   N21       1.0  0.38613  0.89576  0.30339  1.0000
  C   C54       1.0  0.36231  0.90948  0.29932  1.0000
  H   H21       1.0  0.35131  0.89618  0.24980  1.0000
  N   N22       1.0  0.61416  0.06632  0.27360  1.0000
  C   C55       1.0  0.63699  0.04813  0.26942  1.0000
  H   H22       1.0  0.64063  0.02189  0.22392  1.0000
  N   N23       1.0  0.00681  0.54384  0.31550  1.0000
  C   C56       1.0  0.02466  0.51077  0.30936  1.0000
  H   H23       1.0  0.03885  0.51611  0.26579  1.0000
  C   C57       1.0  0.52265  0.04080  0.32097  1.0000
  C   C58       1.0  0.48667  0.97043  0.32549  1.0000
  N   N24       1.0  0.50644  0.96752  0.27024  1.0000
  C   C59       1.0  0.52455  0.00047  0.26391  1.0000
  C   C60       1.0  0.54299  0.99391  0.20101  1.0000
  O   O12       1.0  0.54360  0.95716  0.15719  1.0000
  H   H24       1.0  0.54876  0.02238  0.16810  1.0000
  C   C61       1.0  0.48824  0.32963  0.33123  1.0000
  C   C62       1.0  0.46265  0.32342  0.33759  1.0000
  C   C63       1.0  0.44622  0.36223  0.34381  1.0000
  C   C64       1.0  0.45659  0.40849  0.34525  1.0000
  C   C65       1.0  0.48230  0.41617  0.34190  1.0000
  C   C66       1.0  0.49774  0.37599  0.33529  1.0000
  H   H25       1.0  0.44518  0.43723  0.34454  1.0000
  H   H26       1.0  0.51633  0.38039  0.33158  1.0000
  H   H27       1.0  0.45589  0.28950  0.33772  1.0000
  C   C67       1.0  0.51994  0.68337  0.32646  1.0000
  C   C68       1.0  0.54531  0.69189  0.33523  1.0000
  C   C69       1.0  0.56227  0.65468  0.34981  1.0000
  C   C70       1.0  0.55307  0.60757  0.35113  1.0000
  C   C71       1.0  0.52769  0.59759  0.34172  1.0000
  C   C72       1.0  0.51141  0.63631  0.33159  1.0000
  H   H28       1.0  0.56502  0.58021  0.36206  1.0000
  H   H29       1.0  0.49306  0.63013  0.32322  1.0000
  H   H30       1.0  0.55150  0.72611  0.33092  1.0000
  C   C73       1.0  0.02025  0.82705  0.35693  1.0000
  C   C74       1.0  0.04565  0.81937  0.34753  1.0000
  C   C75       1.0  0.06226  0.85717  0.33272  1.0000
  C   C76       1.0  0.05269  0.90405  0.33208  1.0000
  C   C77       1.0  0.02722  0.91314  0.34197  1.0000
  C   C78       1.0  0.01134  0.87381  0.35242  1.0000
  H   H31       1.0  0.06452  0.93193  0.32471  1.0000
  H   H32       1.0  0.99286  0.87910  0.35869  1.0000
  H   H33       1.0  0.05212  0.78533  0.35160  1.0000
  C   C79       1.0  0.98847  0.18068  0.35203  1.0000
  C   C80       1.0  0.96291  0.18768  0.34572  1.0000
  C   C81       1.0  0.94618  0.14935  0.33976  1.0000
  C   C82       1.0  0.95619  0.10284  0.33946  1.0000
  C   C83       1.0  0.98180  0.09438  0.34423  1.0000
  C   C84       1.0  0.99763  0.13400  0.34910  1.0000
  H   H34       1.0  0.94459  0.07444  0.33706  1.0000
  H   H35       1.0  0.01612  0.12881  0.35563  1.0000
  H   H36       1.0  0.95639  0.22177  0.34519  1.0000
  C   C85       1.0  0.34582  0.30710  0.33749  1.0000
  C   C86       1.0  0.34020  0.25803  0.33632  1.0000
  C   C87       1.0  0.31590  0.24055  0.33260  1.0000
  C   C88       1.0  0.29670  0.27440  0.33628  1.0000
  C   C89       1.0  0.30126  0.32416  0.33895  1.0000
  C   C90       1.0  0.32602  0.33947  0.33914  1.0000
  H   H37       1.0  0.27905  0.26248  0.33244  1.0000
  H   H38       1.0  0.32979  0.37508  0.34021  1.0000
  H   H39       1.0  0.35430  0.23418  0.33950  1.0000
  C   C91       1.0  0.66319  0.70359  0.34496  1.0000
  C   C92       1.0  0.66874  0.75272  0.34456  1.0000
  C   C93       1.0  0.69300  0.77017  0.33677  1.0000
  C   C94       1.0  0.71224  0.73644  0.33745  1.0000
  C   C95       1.0  0.70771  0.68672  0.33960  1.0000
  C   C96       1.0  0.68300  0.67128  0.34078  1.0000
  H   H40       1.0  0.72986  0.74840  0.33195  1.0000
  H   H41       1.0  0.67934  0.63566  0.34366  1.0000
  H   H42       1.0  0.65463  0.77657  0.34755  1.0000
  C   C97       1.0  0.16307  0.80806  0.33778  1.0000
  C   C98       1.0  0.16855  0.75890  0.33778  1.0000
  C   C99       1.0  0.19276  0.74126  0.34598  1.0000
  C   C100      1.0  0.21206  0.77491  0.34602  1.0000
  C   C101      1.0  0.20760  0.82466  0.34422  1.0000
  C   C102      1.0  0.18292  0.84024  0.34266  1.0000
  H   H43       1.0  0.22965  0.76286  0.35179  1.0000
  H   H44       1.0  0.17931  0.87588  0.34000  1.0000
  H   H45       1.0  0.15439  0.73517  0.33416  1.0000
  C   C103      1.0  0.84582  0.20463  0.34807  1.0000
  C   C104      1.0  0.84014  0.25366  0.34979  1.0000
  C   C105      1.0  0.81581  0.27098  0.35349  1.0000
  C   C106      1.0  0.79666  0.23707  0.34930  1.0000
  C   C107      1.0  0.80129  0.18735  0.34610  1.0000
  C   C108      1.0  0.82606  0.17216  0.34594  1.0000
  H   H46       1.0  0.77898  0.24890  0.35298  1.0000
  H   H47       1.0  0.82986  0.13657  0.34439  1.0000
  H   H48       1.0  0.85420  0.27761  0.34696  1.0000
  C   C109      1.0  0.03919  0.43059  0.35541  1.0000
  C   C110      1.0  0.03052  0.38364  0.36074  1.0000
  C   C111      1.0  0.04648  0.34422  0.35890  1.0000
  C   C112      1.0  0.07196  0.35245  0.35079  1.0000
  C   C113      1.0  0.08136  0.39935  0.34692  1.0000
  C   C114      1.0  0.06465  0.43780  0.34841  1.0000
  H   H49       1.0  0.08375  0.32425  0.35244  1.0000
  H   H50       1.0  0.07118  0.47188  0.34670  1.0000
  H   H51       1.0  0.01199  0.37804  0.36397  1.0000
  C   C115      1.0  0.96972  0.57754  0.36608  1.0000
  C   C116      1.0  0.97817  0.62452  0.37305  1.0000
  C   C117      1.0  0.96219  0.66378  0.36605  1.0000
  C   C118      1.0  0.93706  0.65507  0.34865  1.0000
  C   C119      1.0  0.92806  0.60807  0.33954  1.0000
  C   C120      1.0  0.94461  0.56985  0.35041  1.0000
  H   H52       1.0  0.92527  0.68311  0.34246  1.0000
  H   H53       1.0  0.93842  0.53566  0.34511  1.0000
  H   H54       1.0  0.99654  0.63005  0.38293  1.0000
  C   C121      1.0  0.46961  0.93255  0.32824  1.0000
  C   C122      1.0  0.47784  0.88551  0.31830  1.0000
  C   C123      1.0  0.46172  0.84635  0.32329  1.0000
  C   C124      1.0  0.43660  0.85510  0.34055  1.0000
  C   C125      1.0  0.42770  0.90210  0.35090  1.0000
  C   C126      1.0  0.44441  0.94020  0.34217  1.0000
  H   H55       1.0  0.42472  0.82712  0.34513  1.0000
  H   H56       1.0  0.43807  0.97438  0.34452  1.0000
  H   H57       1.0  0.49624  0.87960  0.31062  1.0000
  C   C127      1.0  0.53934  0.07929  0.32351  1.0000
  C   C128      1.0  0.53035  0.12601  0.31930  1.0000
  C   C129      1.0  0.54613  0.16572  0.32099  1.0000
  C   C130      1.0  0.57168  0.15792  0.32830  1.0000
  C   C131      1.0  0.58133  0.11120  0.33196  1.0000
  C   C132      1.0  0.56479  0.07249  0.33090  1.0000
  H   H58       1.0  0.58332  0.18635  0.32642  1.0000
  H   H59       1.0  0.57135  0.03853  0.33640  1.0000
  H   H60       1.0  0.51180  0.13107  0.31442  1.0000
  C   C133      1.0  0.17831  0.46774  0.34379  1.0000
  C   C134      1.0  0.18090  0.51752  0.34838  1.0000
  C   C135      1.0  0.20397  0.54031  0.34568  1.0000
  C   C136      1.0  0.22506  0.51094  0.33885  1.0000
  C   C137      1.0  0.22347  0.46041  0.33393  1.0000
  C   C138      1.0  0.19966  0.44007  0.33467  1.0000
  H   H61       1.0  0.24185  0.52674  0.34240  1.0000
  H   H62       1.0  0.19771  0.40395  0.33114  1.0000
  H   H63       1.0  0.16535  0.53782  0.35136  1.0000
  C   C139      1.0  0.83077  0.54425  0.33504  1.0000
  C   C140      1.0  0.82846  0.49439  0.33878  1.0000
  C   C141      1.0  0.80538  0.47167  0.34328  1.0000
  C   C142      1.0  0.78414  0.50078  0.34158  1.0000
  C   C143      1.0  0.78557  0.55127  0.33706  1.0000
  C   C144      1.0  0.80927  0.57192  0.33501  1.0000
  H   H64       1.0  0.76743  0.48486  0.34809  1.0000
  H   H65       1.0  0.81106  0.60802  0.32993  1.0000
  H   H66       1.0  0.84406  0.47418  0.33924  1.0000
  C   C145      1.0  0.33061  0.96702  0.35220  1.0000
  C   C146      1.0  0.32837  0.01689  0.34856  1.0000
  C   C147      1.0  0.30533  0.03973  0.34345  1.0000
  C   C148      1.0  0.28405  0.01071  0.34452  1.0000
  C   C149      1.0  0.28541  0.96020  0.34889  1.0000
  C   C150      1.0  0.30908  0.93945  0.35158  1.0000
  H   H67       1.0  0.26737  0.02670  0.33761  1.0000
  H   H68       1.0  0.31083  0.90334  0.35664  1.0000
  H   H69       1.0  0.34401  0.03701  0.34858  1.0000
  C   C151      1.0  0.67842  0.04344  0.33663  1.0000
  C   C152      1.0  0.68110  0.99365  0.33258  1.0000
  C   C153      1.0  0.70419  0.97098  0.33606  1.0000
  C   C154      1.0  0.72522  0.00045  0.34346  1.0000
  C   C155      1.0  0.72356  0.05096  0.34824  1.0000
  C   C156      1.0  0.69974  0.07120  0.34634  1.0000
  H   H70       1.0  0.74205  0.98471  0.34066  1.0000
  H   H71       1.0  0.69773  0.10731  0.34969  1.0000
  H   H72       1.0  0.66561  0.97323  0.32935  1.0000
  N   N25       1.0  0.49624  0.54340  0.38605  1.0000
  C   C157      1.0  0.48371  0.50185  0.38843  1.0000
  H   H73       1.0  0.46798  0.49978  0.42529  1.0000
  C   C158      1.0  0.99227  0.04785  0.34624  1.0000
  C   C159      1.0  0.01680  0.95967  0.34328  1.0000
  N   N26       1.0  0.99645  0.96780  0.39390  1.0000
  C   C160      1.0  0.98374  0.00924  0.39928  1.0000
  C   C161      1.0  0.96433  0.01191  0.45890  1.0000
  O   O13       1.0  0.95632  0.97602  0.49465  1.0000
  H   H74       1.0  0.96310  0.04102  0.49622  1.0000
  C   C162      1.0  0.42025  0.35305  0.34343  1.0000
  C   C163      1.0  0.37071  0.32312  0.33632  1.0000
  N   N27       1.0  0.37821  0.36047  0.38757  1.0000
  C   C164      1.0  0.40175  0.37690  0.39386  1.0000
  C   C165      1.0  0.40660  0.41317  0.45395  1.0000
  O   O14       1.0  0.38984  0.43585  0.48749  1.0000
  H   H75       1.0  0.42113  0.40933  0.49336  1.0000
  C   C166      1.0  0.58790  0.66508  0.35841  1.0000
  C   C167      1.0  0.63826  0.68800  0.35002  1.0000
  N   N28       1.0  0.62218  0.71224  0.40251  1.0000
  C   C168      1.0  0.59782  0.70281  0.41101  1.0000
  C   C169      1.0  0.58424  0.72962  0.47135  1.0000
  O   O15       1.0  0.59413  0.76183  0.51292  1.0000
  H   H76       1.0  0.57115  0.71300  0.50507  1.0000
  N   N29       1.0  0.10398  0.87176  0.37634  1.0000
  C   C170      1.0  0.12840  0.86252  0.38124  1.0000
  H   H77       1.0  0.13898  0.88191  0.42435  1.0000
  N   N30       1.0  0.91260  0.19582  0.39233  1.0000
  C   C171      1.0  0.88923  0.21142  0.39911  1.0000
  H   H78       1.0  0.88549  0.23928  0.44086  1.0000
  N   N31       1.0  0.52329  0.28525  0.37788  1.0000
  C   C172      1.0  0.53907  0.24797  0.37721  1.0000
  H   H79       1.0  0.55198  0.24516  0.42663  1.0000
  N   N32       1.0  0.48506  0.72675  0.37650  1.0000
  C   C173      1.0  0.46923  0.76394  0.37812  1.0000
  H   H80       1.0  0.45712  0.76703  0.43012  1.0000
  C   C174      1.0  0.00378  0.78871  0.36985  1.0000
  C   C175      1.0  0.97276  0.70969  0.37319  1.0000
  N   N33       1.0  0.99088  0.71627  0.43467  1.0000
  C   C176      1.0  0.00619  0.75419  0.43887  1.0000
  C   C177      1.0  0.02365  0.75600  0.50661  1.0000
  O   O16       1.0  0.02450  0.72440  0.56289  1.0000
  H   H81       1.0  0.02807  0.78802  0.52905  1.0000
  C   C178      1.0  0.00475  0.21952  0.36358  1.0000
  C   C179      1.0  0.03576  0.29855  0.36639  1.0000
  N   N34       1.0  0.01727  0.29275  0.42658  1.0000
  C   C180      1.0  0.00195  0.25490  0.43095  1.0000
  C   C181      1.0  0.98432  0.25382  0.49799  1.0000
  O   O17       1.0  0.98241  0.28671  0.55122  1.0000
  H   H82       1.0  0.97986  0.22231  0.52293  1.0000
  N   N35       1.0  0.29473  0.16941  0.38166  1.0000
  C   C182      1.0  0.29051  0.12171  0.38697  1.0000
  H   H83       1.0  0.27836  0.10910  0.43339  1.0000
  N   N36       1.0  0.71439  0.84177  0.38211  1.0000
  C   C183      1.0  0.71886  0.88946  0.38433  1.0000
  H   H84       1.0  0.73105  0.90267  0.42997  1.0000
  C   C184      1.0  0.19724  0.69105  0.35479  1.0000
  C   C185      1.0  0.20444  0.59124  0.35211  1.0000
  N   N37       1.0  0.18791  0.61301  0.40671  1.0000
  C   C186      1.0  0.18377  0.66056  0.41314  1.0000
  C   C187      1.0  0.16686  0.67632  0.47605  1.0000
  O   O18       1.0  0.15461  0.64770  0.51846  1.0000
  H   H85       1.0  0.17126  0.70564  0.50929  1.0000
  C   C188      1.0  0.81128  0.32126  0.36083  1.0000
  C   C189      1.0  0.80481  0.42100  0.35194  1.0000
  N   N38       1.0  0.82081  0.39993  0.40944  1.0000
  C   C190      1.0  0.82449  0.35236  0.41892  1.0000
  C   C191      1.0  0.84067  0.33725  0.48481  1.0000
  O   O19       1.0  0.85262  0.36590  0.52831  1.0000
  H   H86       1.0  0.83638  0.30779  0.51788  1.0000
  N   N39       1.0  0.24197  0.38656  0.37705  1.0000
  C   C192      1.0  0.25911  0.35179  0.38157  1.0000
  H   H87       1.0  0.25536  0.32176  0.41744  1.0000
  N   N40       1.0  0.76688  0.62473  0.38054  1.0000
  C   C193      1.0  0.74969  0.65941  0.38400  1.0000
  H   H88       1.0  0.75328  0.68951  0.41991  1.0000
  C   C194      1.0  0.26441  0.92910  0.34852  1.0000
  C   C195      1.0  0.22707  0.85887  0.34480  1.0000
  N   N41       1.0  0.22445  0.90123  0.38803  1.0000
  C   C196      1.0  0.24158  0.93657  0.39276  1.0000
  C   C197      1.0  0.23653  0.97590  0.44542  1.0000
  O   O20       1.0  0.21556  0.98326  0.47046  1.0000
  H   H89       1.0  0.24946  0.98509  0.48889  1.0000
  C   C198      1.0  0.74446  0.08252  0.34990  1.0000
  C   C199      1.0  0.78190  0.15287  0.34571  1.0000
  N   N42       1.0  0.78444  0.11058  0.38934  1.0000
  C   C200      1.0  0.76729  0.07524  0.39424  1.0000
  C   C201      1.0  0.77238  0.03613  0.44719  1.0000
  O   O21       1.0  0.79322  0.02876  0.47375  1.0000
  H   H90       1.0  0.75933  0.02552  0.48905  1.0000
  N   N43       1.0  0.11417  0.44372  0.40691  1.0000
  C   C202      1.0  0.13698  0.46202  0.41137  1.0000
  H   H91       1.0  0.14068  0.48763  0.45808  1.0000
  N   N44       1.0  0.88638  0.61497  0.38525  1.0000
  C   C203      1.0  0.86251  0.60159  0.38852  1.0000
  H   H92       1.0  0.85142  0.61512  0.43756  1.0000
  C   C204      1.0  0.40246  0.91279  0.36462  1.0000
  C   C205      1.0  0.35409  0.94566  0.35757  1.0000
  N   N45       1.0  0.37029  0.96204  0.41935  1.0000
  C   C206      1.0  0.39382  0.94689  0.42804  1.0000
  C   C207      1.0  0.40808  0.96604  0.49636  1.0000
  O   O22       1.0  0.39915  0.99462  0.54883  1.0000
  H   H93       1.0  0.42072  0.94488  0.52255  1.0000
  C   C208      1.0  0.60690  0.10091  0.33171  1.0000
  C   C209      1.0  0.65480  0.06459  0.33046  1.0000
  N   N46       1.0  0.64782  0.09987  0.38759  1.0000
  C   C210      1.0  0.62493  0.11946  0.39123  1.0000
  C   C211      1.0  0.61996  0.15315  0.45651  1.0000
  O   O23       1.0  0.63638  0.16836  0.50438  1.0000
  H   H94       1.0  0.60367  0.15193  0.48597  1.0000
  C   C212      1.0  0.98672  0.53964  0.36908  1.0000
  C   C213      1.0  0.02233  0.46874  0.35990  1.0000
  N   N47       1.0  0.00229  0.46484  0.41366  1.0000
  C   C214      1.0  0.98434  0.49795  0.42210  1.0000
  C   C215      1.0  0.96550  0.48992  0.48264  1.0000
  O   O24       1.0  0.96456  0.45279  0.52510  1.0000
  H   H95       1.0  0.95875  0.51787  0.51483  1.0000
  N   N48       1.0  0.50288  0.04388  0.37632  1.0000
  C   C216      1.0  0.48496  0.01090  0.38078  1.0000
  H   H96       1.0  0.47105  0.01536  0.42588  1.0000
