data_image0
_chemical_formula_structural       C9NH3NHC5NH3NHC5NH3NHC5H3C2O3C5H3C2O3C2NC3H3NHC2NC3H3NHC2NC3H3NH
_chemical_formula_sum              "C48 N12 H30 O6"
_cell_length_a       29.5144
_cell_length_b       29.5144
_cell_length_c       15.1754
_cell_angle_alpha    90
_cell_angle_beta     90
_cell_angle_gamma    120

_space_group_name_H-M_alt    "P 1"
_space_group_IT_number       1

loop_
  _space_group_symop_operation_xyz
  'x, y, z'

loop_
  _atom_site_type_symbol
  _atom_site_label
  _atom_site_symmetry_multiplicity
  _atom_site_fract_x
  _atom_site_fract_y
  _atom_site_fract_z
  _atom_site_occupancy
  C   C1        1.0  0.36398  0.64662  0.32773  1.0000
  C   C2        1.0  0.40297  0.63221  0.32330  1.0000
  C   C3        1.0  0.61870  0.34187  0.31591  1.0000
  C   C4        1.0  0.57972  0.35628  0.32044  1.0000
  C   C5        1.0  0.43793  0.55676  0.26697  1.0000
  C   C6        1.0  0.46371  0.52830  0.25326  1.0000
  C   C7        1.0  0.50387  0.47923  0.31722  1.0000
  C   C8        1.0  0.55535  0.42155  0.29049  1.0000
  C   C9        1.0  0.54031  0.44190  0.21947  1.0000
  N   N1        1.0  0.51549  0.46917  0.23527  1.0000
  H   H1        1.0  0.54811  0.43672  0.15584  1.0000
  H   H2        1.0  0.42535  0.56838  0.21334  1.0000
  H   H3        1.0  0.47035  0.52111  0.19004  1.0000
  N   N2        1.0  0.58453  0.39832  0.27557  1.0000
  H   H4        1.0  0.61121  0.41376  0.22969  1.0000
  C   C10       1.0  0.42880  0.87833  0.26693  1.0000
  C   C11       1.0  0.45723  0.93258  0.25323  1.0000
  C   C12       1.0  0.50629  0.02180  0.31721  1.0000
  C   C13       1.0  0.56408  0.13097  0.29050  1.0000
  C   C14       1.0  0.54366  0.09557  0.21948  1.0000
  N   N3        1.0  0.51636  0.04350  0.23527  1.0000
  H   H5        1.0  0.54884  0.10857  0.15586  1.0000
  H   H6        1.0  0.41723  0.85414  0.21329  1.0000
  H   H7        1.0  0.46444  0.94641  0.19002  1.0000
  N   N4        1.0  0.58729  0.18337  0.27556  1.0000
  H   H8        1.0  0.57183  0.19461  0.22973  1.0000
  C   C15       1.0  0.10723  0.54745  0.26667  1.0000
  C   C16       1.0  0.05299  0.52162  0.25298  1.0000
  C   C17       1.0  0.96377  0.48152  0.31696  1.0000
  C   C18       1.0  0.85461  0.43016  0.29028  1.0000
  C   C19       1.0  0.89000  0.44515  0.21924  1.0000
  N   N5        1.0  0.94208  0.46992  0.23502  1.0000
  H   H9        1.0  0.87699  0.43736  0.15561  1.0000
  H   H10       1.0  0.13143  0.56009  0.21302  1.0000
  H   H11       1.0  0.03916  0.51497  0.18977  1.0000
  N   N6        1.0  0.80221  0.40105  0.27531  1.0000
  H   H12       1.0  0.79093  0.37433  0.22950  1.0000
  C   C20       1.0  0.33898  0.71451  0.32766  1.0000
  C   C21       1.0  0.28587  0.67512  0.32694  1.0000
  C   C22       1.0  0.27109  0.62161  0.32757  1.0000
  C   C23       1.0  0.31048  0.60789  0.32702  1.0000
  C   C24       1.0  0.37771  0.69974  0.32715  1.0000
  H   H13       1.0  0.29997  0.56918  0.32460  1.0000
  H   H14       1.0  0.41642  0.72794  0.32475  1.0000
  H   H15       1.0  0.25766  0.68563  0.32448  1.0000
  C   C25       1.0  0.35340  0.76791  0.32317  1.0000
  C   C26       1.0  0.21769  0.58264  0.32300  1.0000
  O   O1        1.0  0.44550  0.66135  0.27221  1.0000
  O   O2        1.0  0.32427  0.78130  0.27205  1.0000
  O   O3        1.0  0.20434  0.54011  0.27192  1.0000
  C   C27       1.0  0.64373  0.27399  0.31594  1.0000
  C   C28       1.0  0.69684  0.31339  0.31647  1.0000
  C   C29       1.0  0.71161  0.36689  0.31582  1.0000
  C   C30       1.0  0.67221  0.38060  0.31649  1.0000
  C   C31       1.0  0.60499  0.28876  0.31657  1.0000
  H   H16       1.0  0.68271  0.41932  0.31887  1.0000
  H   H17       1.0  0.56629  0.26055  0.31902  1.0000
  H   H18       1.0  0.72505  0.30289  0.31888  1.0000
  C   C32       1.0  0.62933  0.22060  0.32047  1.0000
  C   C33       1.0  0.76500  0.40588  0.32027  1.0000
  O   O4        1.0  0.53720  0.32711  0.37154  1.0000
  O   O5        1.0  0.65851  0.20725  0.37154  1.0000
  O   O6        1.0  0.77839  0.44842  0.37134  1.0000
  C   C34       1.0  0.42723  0.56687  0.35324  1.0000
  C   C35       1.0  0.47857  0.50904  0.32652  1.0000
  N   N7        1.0  0.46697  0.51914  0.40847  1.0000
  C   C36       1.0  0.44221  0.54646  0.42427  1.0000
  C   C37       1.0  0.51872  0.45998  0.39047  1.0000
  C   C38       1.0  0.54459  0.43160  0.37677  1.0000
  H   H19       1.0  0.51211  0.46718  0.45369  1.0000
  H   H20       1.0  0.55722  0.42003  0.43041  1.0000
  H   H21       1.0  0.43443  0.55167  0.48790  1.0000
  N   N8        1.0  0.39813  0.59017  0.36823  1.0000
  H   H22       1.0  0.37140  0.57471  0.41403  1.0000
  C   C39       1.0  0.41871  0.85752  0.35320  1.0000
  C   C40       1.0  0.47645  0.96668  0.32651  1.0000
  N   N9        1.0  0.46633  0.94499  0.40846  1.0000
  C   C41       1.0  0.43904  0.89291  0.42425  1.0000
  C   C42       1.0  0.52555  0.05590  0.39047  1.0000
  C   C43       1.0  0.55400  0.11015  0.37677  1.0000
  H   H23       1.0  0.51834  0.04208  0.45369  1.0000
  H   H24       1.0  0.56556  0.13434  0.43041  1.0000
  H   H25       1.0  0.43380  0.87991  0.48787  1.0000
  N   N10       1.0  0.39541  0.80511  0.36815  1.0000
  H   H26       1.0  0.41083  0.79384  0.41401  1.0000
  C   C44       1.0  0.12805  0.55828  0.35293  1.0000
  C   C45       1.0  0.01889  0.50680  0.32625  1.0000
  N   N11       1.0  0.04059  0.51845  0.40819  1.0000
  C   C46       1.0  0.09267  0.54325  0.42398  1.0000
  C   C47       1.0  0.92968  0.46671  0.39024  1.0000
  C   C48       1.0  0.87543  0.44092  0.37655  1.0000
  H   H27       1.0  0.94350  0.47331  0.45345  1.0000
  H   H28       1.0  0.85123  0.42829  0.43019  1.0000
  H   H29       1.0  0.10567  0.55110  0.48759  1.0000
  N   N12       1.0  0.18046  0.58745  0.36786  1.0000
  H   H30       1.0  0.19171  0.61414  0.41373  1.0000
