data_image0
_chemical_formula_structural       C8O2H4N2C8O2H4N2C8O2H4N3C2HCHNC2HCHNC2HCHNC2HCHNC2HCHNC2HCHC2HOC2OHN2C2HOC2OHN2C2HOC2OHN2CNC2OH3CHCNC2OH3CHCNC2OH3CHCNC2OH3CHCNC2OH3CHCNC2OH3CH
_chemical_formula_sum              "C78 O18 H54 N24"
_cell_length_a       31.0068
_cell_length_b       31.0068
_cell_length_c       14.9985
_cell_angle_alpha    90
_cell_angle_beta     90
_cell_angle_gamma    120

_space_group_name_H-M_alt    "P 1"
_space_group_IT_number       1

loop_
  _space_group_symop_operation_xyz
  'x, y, z'

loop_
  _atom_site_type_symbol
  _atom_site_label
  _atom_site_symmetry_multiplicity
  _atom_site_fract_x
  _atom_site_fract_y
  _atom_site_fract_z
  _atom_site_occupancy
  C   C1        1.0  0.02692  0.51362  0.27951  1.0000
  C   C2        1.0  0.12922  0.56534  0.33471  1.0000
  C   C3        1.0  0.10540  0.59293  0.31331  1.0000
  C   C4        1.0  0.05677  0.56706  0.27646  1.0000
  C   C5        1.0  0.97311  0.48679  0.27958  1.0000
  C   C6        1.0  0.94323  0.43336  0.27617  1.0000
  C   C7        1.0  0.89462  0.40741  0.31307  1.0000
  C   C8        1.0  0.87089  0.43499  0.33509  1.0000
  O   O1        1.0  0.04046  0.59649  0.23941  1.0000
  O   O2        1.0  0.95950  0.40399  0.23867  1.0000
  H   H1        1.0  0.03627  0.58882  0.17529  1.0000
  H   H2        1.0  0.96358  0.41176  0.17459  1.0000
  H   H3        1.0  0.19692  0.60029  0.29757  1.0000
  H   H4        1.0  0.80317  0.40022  0.29795  1.0000
  N   N1        1.0  0.87177  0.35692  0.32412  1.0000
  N   N2        1.0  0.12823  0.64338  0.32478  1.0000
  C   C9        1.0  0.48682  0.51350  0.27915  1.0000
  C   C10       1.0  0.43514  0.56415  0.33416  1.0000
  C   C11       1.0  0.40753  0.51278  0.31258  1.0000
  C   C12       1.0  0.43340  0.48999  0.27585  1.0000
  C   C13       1.0  0.51362  0.48649  0.27934  1.0000
  C   C14       1.0  0.56706  0.51003  0.27624  1.0000
  C   C15       1.0  0.59289  0.48728  0.31331  1.0000
  C   C16       1.0  0.56527  0.43593  0.33502  1.0000
  O   O3        1.0  0.40396  0.44429  0.23866  1.0000
  O   O4        1.0  0.59653  0.55570  0.23897  1.0000
  H   H5        1.0  0.41166  0.44783  0.17455  1.0000
  H   H6        1.0  0.58885  0.55212  0.17485  1.0000
  H   H7        1.0  0.40036  0.59705  0.29685  1.0000
  H   H8        1.0  0.60016  0.40307  0.29815  1.0000
  N   N3        1.0  0.64335  0.51490  0.32476  1.0000
  N   N4        1.0  0.35705  0.48518  0.32385  1.0000
  C   C17       1.0  0.48641  0.97288  0.27980  1.0000
  C   C18       1.0  0.43605  0.87069  0.33556  1.0000
  C   C19       1.0  0.48736  0.89445  0.31348  1.0000
  C   C20       1.0  0.51000  0.94304  0.27646  1.0000
  C   C21       1.0  0.51336  0.02669  0.27967  1.0000
  C   C22       1.0  0.48972  0.05649  0.27639  1.0000
  C   C23       1.0  0.51244  0.10515  0.31310  1.0000
  C   C24       1.0  0.56385  0.12903  0.33446  1.0000
  O   O5        1.0  0.55563  0.95931  0.23895  1.0000
  O   O6        1.0  0.44399  0.04012  0.23926  1.0000
  H   H9        1.0  0.55194  0.96338  0.17487  1.0000
  H   H10       1.0  0.44749  0.03588  0.17517  1.0000
  H   H11       1.0  0.40317  0.80295  0.29859  1.0000
  H   H12       1.0  0.59655  0.19670  0.29711  1.0000
  N   N5        1.0  0.48476  0.12793  0.32446  1.0000
  N   N6        1.0  0.51505  0.87167  0.32463  1.0000
  N   N7        1.0  0.24997  0.44336  0.31071  1.0000
  C   C25       1.0  0.20141  0.42892  0.29396  1.0000
  C   C26       1.0  0.17968  0.45302  0.33982  1.0000
  H   H13       1.0  0.18346  0.40531  0.24206  1.0000
  C   C27       1.0  0.13411  0.44969  0.31739  1.0000
  H   H14       1.0  0.11037  0.42414  0.27223  1.0000
  N   N8        1.0  0.55704  0.80661  0.31122  1.0000
  C   C28       1.0  0.57155  0.77256  0.29434  1.0000
  C   C29       1.0  0.54768  0.72681  0.34045  1.0000
  H   H15       1.0  0.59499  0.77817  0.24219  1.0000
  C   C30       1.0  0.55099  0.68459  0.31785  1.0000
  H   H16       1.0  0.57630  0.68618  0.27235  1.0000
  N   N9        1.0  0.19366  0.75039  0.31179  1.0000
  C   C31       1.0  0.22784  0.79896  0.29526  1.0000
  C   C32       1.0  0.27340  0.82074  0.34195  1.0000
  H   H17       1.0  0.22242  0.81690  0.24307  1.0000
  C   C33       1.0  0.31567  0.86636  0.31992  1.0000
  H   H18       1.0  0.31438  0.88990  0.27366  1.0000
  N   N10       1.0  0.75039  0.55673  0.31188  1.0000
  C   C34       1.0  0.79899  0.57128  0.29538  1.0000
  C   C35       1.0  0.82086  0.54753  0.34196  1.0000
  H   H19       1.0  0.81691  0.59471  0.24327  1.0000
  C   C36       1.0  0.86654  0.55104  0.31991  1.0000
  H   H20       1.0  0.89007  0.57595  0.27376  1.0000
  N   N11       1.0  0.44301  0.19321  0.31122  1.0000
  C   C37       1.0  0.42862  0.22736  0.29438  1.0000
  C   C38       1.0  0.45269  0.27315  0.34035  1.0000
  H   H21       1.0  0.40513  0.22178  0.24233  1.0000
  C   C39       1.0  0.44951  0.31546  0.31777  1.0000
  H   H22       1.0  0.42407  0.31371  0.27240  1.0000
  N   N12       1.0  0.80652  0.24986  0.31065  1.0000
  C   C40       1.0  0.77241  0.20131  0.29381  1.0000
  C   C41       1.0  0.72667  0.17949  0.33994  1.0000
  H   H23       1.0  0.77799  0.18343  0.24169  1.0000
  C   C42       1.0  0.68443  0.13394  0.31751  1.0000
  H   H24       1.0  0.68598  0.11017  0.27208  1.0000
  C   C43       1.0  0.05402  0.48843  0.29677  1.0000
  C   C44       1.0  0.10447  0.51362  0.32113  1.0000
  H   H25       1.0  0.03712  0.45083  0.30143  1.0000
  O   O7        1.0  0.17892  0.58844  0.35442  1.0000
  C   C45       1.0  0.89566  0.48676  0.32209  1.0000
  C   C46       1.0  0.94607  0.51197  0.29745  1.0000
  O   O8        1.0  0.82119  0.41192  0.35483  1.0000
  H   H26       1.0  0.96306  0.54955  0.30297  1.0000
  N   N13       1.0  0.86809  0.50889  0.33394  1.0000
  N   N14       1.0  0.13216  0.49156  0.33200  1.0000
  C   C47       1.0  0.51207  0.56579  0.29651  1.0000
  C   C48       1.0  0.48690  0.59106  0.32093  1.0000
  H   H27       1.0  0.54964  0.58638  0.30181  1.0000
  O   O9        1.0  0.41210  0.59081  0.35376  1.0000
  C   C49       1.0  0.51354  0.40897  0.32135  1.0000
  C   C50       1.0  0.48839  0.43421  0.29659  1.0000
  O   O10       1.0  0.58828  0.40928  0.35493  1.0000
  H   H28       1.0  0.45080  0.41357  0.30157  1.0000
  N   N15       1.0  0.49143  0.35922  0.33245  1.0000
  N   N16       1.0  0.50903  0.64080  0.33218  1.0000
  C   C51       1.0  0.43418  0.94582  0.29761  1.0000
  C   C52       1.0  0.40902  0.89542  0.32236  1.0000
  H   H29       1.0  0.41358  0.96279  0.30308  1.0000
  O   O11       1.0  0.40945  0.82102  0.35541  1.0000
  C   C53       1.0  0.59087  0.10432  0.32109  1.0000
  C   C54       1.0  0.56564  0.05383  0.29695  1.0000
  O   O12       1.0  0.59040  0.17875  0.35402  1.0000
  H   H30       1.0  0.58635  0.03694  0.30164  1.0000
  N   N17       1.0  0.64062  0.13204  0.33206  1.0000
  N   N18       1.0  0.35931  0.86783  0.33419  1.0000
  C   C55       1.0  0.27780  0.47675  0.37530  1.0000
  N   N19       1.0  0.20740  0.48534  0.40512  1.0000
  C   C56       1.0  0.25426  0.49719  0.42812  1.0000
  C   C57       1.0  0.27762  0.53381  0.50182  1.0000
  O   O13       1.0  0.29339  0.51440  0.57351  1.0000
  H   H31       1.0  0.25209  0.54546  0.52820  1.0000
  H   H32       1.0  0.31005  0.56720  0.47612  1.0000
  H   H33       1.0  0.26358  0.48670  0.60120  1.0000
  C   C58       1.0  0.32924  0.49467  0.38185  1.0000
  H   H34       1.0  0.34805  0.51971  0.43122  1.0000
  C   C59       1.0  0.52383  0.80108  0.37613  1.0000
  N   N20       1.0  0.51553  0.72222  0.40610  1.0000
  C   C60       1.0  0.50366  0.75720  0.42921  1.0000
  C   C61       1.0  0.46730  0.74402  0.50333  1.0000
  O   O14       1.0  0.48690  0.77938  0.57473  1.0000
  H   H35       1.0  0.45585  0.70693  0.52991  1.0000
  H   H36       1.0  0.43376  0.74289  0.47799  1.0000
  H   H37       1.0  0.51474  0.77743  0.60213  1.0000
  C   C62       1.0  0.50579  0.83450  0.38279  1.0000
  H   H38       1.0  0.48082  0.82826  0.43231  1.0000
  C   C63       1.0  0.19892  0.72257  0.37679  1.0000
  N   N21       1.0  0.27770  0.79305  0.40770  1.0000
  C   C64       1.0  0.24262  0.74616  0.43035  1.0000
  C   C65       1.0  0.25549  0.72281  0.50460  1.0000
  O   O15       1.0  0.21987  0.70691  0.57557  1.0000
  H   H39       1.0  0.29249  0.74837  0.53164  1.0000
  H   H40       1.0  0.25669  0.69043  0.47924  1.0000
  H   H41       1.0  0.22174  0.73666  0.60302  1.0000
  C   C66       1.0  0.16541  0.67112  0.38304  1.0000
  H   H42       1.0  0.17152  0.65224  0.43246  1.0000
  C   C67       1.0  0.72260  0.52355  0.37675  1.0000
  N   N22       1.0  0.79319  0.51543  0.40758  1.0000
  C   C68       1.0  0.74625  0.50347  0.43021  1.0000
  C   C69       1.0  0.72292  0.46711  0.50429  1.0000
  O   O16       1.0  0.70693  0.48667  0.57540  1.0000
  H   H43       1.0  0.74854  0.45572  0.53123  1.0000
  H   H44       1.0  0.69060  0.43354  0.47879  1.0000
  H   H45       1.0  0.73663  0.51454  0.60297  1.0000
  C   C70       1.0  0.67113  0.50550  0.38299  1.0000
  H   H46       1.0  0.65229  0.48050  0.43241  1.0000
  C   C71       1.0  0.47627  0.19869  0.37600  1.0000
  N   N23       1.0  0.48488  0.27768  0.40586  1.0000
  C   C72       1.0  0.49664  0.24262  0.42895  1.0000
  C   C73       1.0  0.53309  0.25577  0.50289  1.0000
  O   O17       1.0  0.51353  0.22049  0.57440  1.0000
  H   H47       1.0  0.54469  0.29291  0.52939  1.0000
  H   H48       1.0  0.56655  0.25677  0.47738  1.0000
  H   H49       1.0  0.48578  0.22256  0.60194  1.0000
  C   C74       1.0  0.49418  0.16516  0.38258  1.0000
  H   H50       1.0  0.51923  0.17139  0.43195  1.0000
  C   C75       1.0  0.80105  0.27759  0.37554  1.0000
  N   N24       1.0  0.72213  0.20710  0.40555  1.0000
  C   C76       1.0  0.75716  0.25394  0.42861  1.0000
  C   C77       1.0  0.74403  0.27718  0.50270  1.0000
  O   O18       1.0  0.77938  0.29289  0.57412  1.0000
  H   H51       1.0  0.70692  0.25159  0.52928  1.0000
  H   H52       1.0  0.74297  0.30962  0.47734  1.0000
  H   H53       1.0  0.77736  0.26306  0.60154  1.0000
  C   C78       1.0  0.83454  0.32902  0.38219  1.0000
  H   H54       1.0  0.82836  0.34777  0.43175  1.0000
