data_image0
_chemical_formula_structural       C4NC2NC2H2C4NC2NC2H2C4NC2NC2H2C4NC2NC2H2C4NC2NC2H2C4NC2NC2H2C2H2C2H2C2H2C2H2C2H2C2H2C2H2C2H2C2H2C2H2C2H2C2H2C4NC2NC2H2C4NC2NC2H2C4NC2NC2H2C4NC2NC2H2C4NC2NC2H2C4NC2NC2H2CNCNCNCNCNCNCNCNCNCNCNCNCNCNCNCNCNCNCNCNCNCNCNCNCNCNCNCNCNCNCNCNCNCNCNCNC2H2C2H2C2H2C2H2C2H2C2H2C2H2C2H2C2H2C2H2C2H2C2H2C4NC2NC2H2C4NC2NC2H2C4NC2NC2H2C4NC2NC2H2C4NC2NC2H2C4NC2NC2H2C2H2C2H2C2H2C2H2C2H2C2H2C2H2C2H2C2H2C2H2C2H2C2H2
_chemical_formula_sum              "C252 N72 H108"
_cell_length_a       39.4529
_cell_length_b       39.4529
_cell_length_c       14.8701
_cell_angle_alpha    90
_cell_angle_beta     90
_cell_angle_gamma    120

_space_group_name_H-M_alt    "P 1"
_space_group_IT_number       1

loop_
  _space_group_symop_operation_xyz
  'x, y, z'

loop_
  _atom_site_type_symbol
  _atom_site_label
  _atom_site_symmetry_multiplicity
  _atom_site_fract_x
  _atom_site_fract_y
  _atom_site_fract_z
  _atom_site_occupancy
  C   C1        1.0  0.27055  0.45913  0.34287  1.0000
  C   C2        1.0  0.24598  0.44697  0.26601  1.0000
  C   C3        1.0  0.20973  0.44696  0.26601  1.0000
  C   C4        1.0  0.19729  0.45908  0.34288  1.0000
  N   N1        1.0  0.18894  0.43789  0.18798  1.0000
  C   C5        1.0  0.20074  0.42866  0.11067  1.0000
  C   C6        1.0  0.23666  0.42868  0.11065  1.0000
  N   N2        1.0  0.25770  0.43791  0.18796  1.0000
  C   C7        1.0  0.17875  0.42026  0.03091  1.0000
  C   C8        1.0  0.25026  0.42030  0.03088  1.0000
  H   H1        1.0  0.15327  0.42100  0.03009  1.0000
  H   H2        1.0  0.27650  0.42107  0.03004  1.0000
  C   C9        1.0  0.57019  0.83198  0.34296  1.0000
  C   C10       1.0  0.58233  0.81955  0.26609  1.0000
  C   C11       1.0  0.58234  0.78329  0.26611  1.0000
  C   C12       1.0  0.57020  0.75873  0.34299  1.0000
  N   N3        1.0  0.59139  0.77157  0.18807  1.0000
  C   C13       1.0  0.60062  0.79260  0.11074  1.0000
  C   C14       1.0  0.60061  0.82850  0.11072  1.0000
  N   N4        1.0  0.59138  0.84031  0.18803  1.0000
  C   C15       1.0  0.60898  0.77898  0.03098  1.0000
  C   C16       1.0  0.60898  0.85047  0.03094  1.0000
  H   H3        1.0  0.60825  0.75277  0.03018  1.0000
  H   H4        1.0  0.60821  0.87594  0.03009  1.0000
  C   C17       1.0  0.19726  0.75872  0.34282  1.0000
  C   C18       1.0  0.20970  0.78328  0.26595  1.0000
  C   C19       1.0  0.24596  0.81953  0.26594  1.0000
  C   C20       1.0  0.27052  0.83194  0.34281  1.0000
  N   N5        1.0  0.25769  0.84031  0.18790  1.0000
  C   C21       1.0  0.23666  0.82851  0.11059  1.0000
  C   C22       1.0  0.20074  0.79260  0.11058  1.0000
  N   N6        1.0  0.18892  0.77157  0.18790  1.0000
  C   C23       1.0  0.25026  0.85049  0.03082  1.0000
  C   C24       1.0  0.17875  0.77901  0.03082  1.0000
  H   H5        1.0  0.27649  0.87596  0.02999  1.0000
  H   H6        1.0  0.15327  0.75280  0.02998  1.0000
  C   C25       1.0  0.75477  0.57406  0.34286  1.0000
  C   C26       1.0  0.77934  0.58621  0.26600  1.0000
  C   C27       1.0  0.81560  0.58621  0.26601  1.0000
  C   C28       1.0  0.82801  0.57407  0.34289  1.0000
  N   N7        1.0  0.83638  0.59527  0.18797  1.0000
  C   C29       1.0  0.82458  0.60450  0.11065  1.0000
  C   C30       1.0  0.78866  0.60450  0.11063  1.0000
  N   N8        1.0  0.76763  0.59527  0.18794  1.0000
  C   C31       1.0  0.84656  0.61288  0.03089  1.0000
  C   C32       1.0  0.77507  0.61288  0.03086  1.0000
  H   H7        1.0  0.87204  0.61214  0.03008  1.0000
  H   H8        1.0  0.74884  0.61211  0.03001  1.0000
  C   C33       1.0  0.45517  0.20122  0.34292  1.0000
  C   C34       1.0  0.44301  0.21362  0.26606  1.0000
  C   C35       1.0  0.44301  0.24988  0.26607  1.0000
  C   C36       1.0  0.45512  0.27444  0.34295  1.0000
  N   N9        1.0  0.43393  0.26159  0.18804  1.0000
  C   C37       1.0  0.42471  0.24056  0.11071  1.0000
  C   C38       1.0  0.42472  0.20465  0.11070  1.0000
  N   N10       1.0  0.43396  0.19285  0.18800  1.0000
  C   C39       1.0  0.41631  0.25415  0.03096  1.0000
  C   C40       1.0  0.41635  0.18268  0.03092  1.0000
  H   H9        1.0  0.41705  0.28037  0.03015  1.0000
  H   H10       1.0  0.41711  0.15721  0.03008  1.0000
  C   C41       1.0  0.82800  0.27447  0.34298  1.0000
  C   C42       1.0  0.81559  0.24989  0.26613  1.0000
  C   C43       1.0  0.77934  0.21363  0.26613  1.0000
  C   C44       1.0  0.75478  0.20119  0.34301  1.0000
  N   N11       1.0  0.76764  0.19285  0.18809  1.0000
  C   C45       1.0  0.78867  0.20466  0.11077  1.0000
  C   C46       1.0  0.82457  0.24058  0.11077  1.0000
  N   N12       1.0  0.83637  0.26161  0.18808  1.0000
  C   C47       1.0  0.77507  0.18268  0.03100  1.0000
  C   C48       1.0  0.84655  0.25418  0.03100  1.0000
  H   H11       1.0  0.74886  0.15719  0.03018  1.0000
  H   H12       1.0  0.87201  0.28042  0.03016  1.0000
  C   C49       1.0  0.13206  0.59410  0.26386  1.0000
  C   C50       1.0  0.13204  0.55847  0.26389  1.0000
  H   H13       1.0  0.12147  0.54078  0.20847  1.0000
  H   H14       1.0  0.12147  0.60121  0.20844  1.0000
  C   C51       1.0  0.19527  0.62577  0.06297  1.0000
  C   C52       1.0  0.19527  0.59007  0.06299  1.0000
  H   H15       1.0  0.20186  0.64199  0.12063  1.0000
  H   H16       1.0  0.20186  0.58045  0.12065  1.0000
  C   C53       1.0  0.43517  0.55848  0.26389  1.0000
  C   C54       1.0  0.47080  0.59409  0.26387  1.0000
  H   H17       1.0  0.48847  0.60122  0.20841  1.0000
  H   H18       1.0  0.42804  0.54079  0.20845  1.0000
  C   C55       1.0  0.40356  0.59010  0.06297  1.0000
  C   C56       1.0  0.43926  0.62580  0.06295  1.0000
  H   H19       1.0  0.38735  0.58048  0.12063  1.0000
  H   H20       1.0  0.44889  0.64202  0.12060  1.0000
  C   C57       1.0  0.47077  0.89719  0.26386  1.0000
  C   C58       1.0  0.43515  0.89720  0.26390  1.0000
  H   H21       1.0  0.42802  0.90778  0.20847  1.0000
  H   H22       1.0  0.48846  0.90778  0.20843  1.0000
  C   C59       1.0  0.43926  0.83399  0.06296  1.0000
  C   C60       1.0  0.40356  0.83399  0.06299  1.0000
  H   H23       1.0  0.44890  0.82740  0.12060  1.0000
  H   H24       1.0  0.38735  0.82740  0.12065  1.0000
  C   C61       1.0  0.89327  0.43909  0.26381  1.0000
  C   C62       1.0  0.89328  0.47471  0.26381  1.0000
  H   H25       1.0  0.90381  0.49239  0.20835  1.0000
  H   H26       1.0  0.90383  0.43196  0.20837  1.0000
  C   C63       1.0  0.83002  0.40742  0.06291  1.0000
  C   C64       1.0  0.83001  0.44312  0.06290  1.0000
  H   H27       1.0  0.82343  0.39121  0.12056  1.0000
  H   H28       1.0  0.82341  0.45274  0.12055  1.0000
  C   C65       1.0  0.59015  0.47468  0.26384  1.0000
  C   C66       1.0  0.55452  0.43906  0.26388  1.0000
  H   H29       1.0  0.53682  0.43194  0.20845  1.0000
  H   H30       1.0  0.59725  0.49238  0.20842  1.0000
  C   C67       1.0  0.62184  0.44316  0.06295  1.0000
  C   C68       1.0  0.58614  0.40746  0.06297  1.0000
  H   H31       1.0  0.63806  0.45279  0.12059  1.0000
  H   H32       1.0  0.57653  0.39125  0.12064  1.0000
  C   C69       1.0  0.55452  0.13594  0.26390  1.0000
  C   C70       1.0  0.59014  0.13593  0.26389  1.0000
  H   H33       1.0  0.59727  0.12538  0.20842  1.0000
  H   H34       1.0  0.53683  0.12538  0.20847  1.0000
  C   C71       1.0  0.58615  0.19917  0.06299  1.0000
  C   C72       1.0  0.62184  0.19917  0.06297  1.0000
  H   H35       1.0  0.57652  0.20577  0.12065  1.0000
  H   H36       1.0  0.63807  0.20576  0.12062  1.0000
  C   C73       1.0  0.97035  0.36822  0.33989  1.0000
  C   C74       1.0  0.99170  0.36904  0.26243  1.0000
  C   C75       1.0  0.03360  0.39000  0.26241  1.0000
  C   C76       1.0  0.05496  0.41054  0.33986  1.0000
  N   N13       1.0  0.05238  0.39189  0.18420  1.0000
  C   C77       1.0  0.03339  0.37445  0.10688  1.0000
  C   C78       1.0  0.99191  0.35370  0.10689  1.0000
  N   N14       1.0  0.97292  0.35214  0.18422  1.0000
  C   C79       1.0  0.05392  0.37680  0.02753  1.0000
  C   C80       1.0  0.97138  0.33551  0.02755  1.0000
  H   H37       1.0  0.08377  0.39181  0.02698  1.0000
  H   H38       1.0  0.94153  0.32065  0.02701  1.0000
  C   C81       1.0  0.66092  0.62258  0.34010  1.0000
  C   C82       1.0  0.66020  0.64316  0.26261  1.0000
  C   C83       1.0  0.63926  0.66412  0.26256  1.0000
  C   C84       1.0  0.61869  0.66488  0.34002  1.0000
  N   N15       1.0  0.63741  0.68104  0.18435  1.0000
  C   C85       1.0  0.65488  0.67949  0.10707  1.0000
  C   C86       1.0  0.67560  0.65874  0.10711  1.0000
  N   N16       1.0  0.67712  0.64128  0.18443  1.0000
  C   C87       1.0  0.65257  0.69771  0.02773  1.0000
  C   C88       1.0  0.69381  0.65641  0.02780  1.0000
  H   H39       1.0  0.63758  0.71256  0.02716  1.0000
  H   H40       1.0  0.70866  0.64140  0.02728  1.0000
  C   C89       1.0  0.40658  0.05886  0.34001  1.0000
  C   C90       1.0  0.38605  0.03752  0.26255  1.0000
  C   C91       1.0  0.36511  0.99563  0.26254  1.0000
  C   C92       1.0  0.36430  0.97429  0.34001  1.0000
  N   N17       1.0  0.34821  0.97684  0.18434  1.0000
  C   C93       1.0  0.34977  0.99583  0.10702  1.0000
  C   C94       1.0  0.37050  0.03731  0.10702  1.0000
  N   N18       1.0  0.38794  0.05631  0.18433  1.0000
  C   C95       1.0  0.33158  0.97530  0.02767  1.0000
  C   C96       1.0  0.37284  0.05784  0.02767  1.0000
  H   H41       1.0  0.31673  0.94545  0.02714  1.0000
  H   H42       1.0  0.38783  0.08769  0.02712  1.0000
  C   C97       1.0  0.05492  0.66485  0.34024  1.0000
  C   C98       1.0  0.03359  0.66410  0.26278  1.0000
  C   C99       1.0  0.99170  0.64316  0.26278  1.0000
  C   C100      1.0  0.97037  0.62259  0.34025  1.0000
  N   N19       1.0  0.97291  0.64129  0.18457  1.0000
  C   C101      1.0  0.99191  0.65875  0.10727  1.0000
  C   C102      1.0  0.03339  0.67949  0.10727  1.0000
  N   N20       1.0  0.05238  0.68101  0.18457  1.0000
  C   C103      1.0  0.97138  0.65643  0.02794  1.0000
  C   C104      1.0  0.05392  0.69769  0.02794  1.0000
  H   H43       1.0  0.94153  0.64143  0.02739  1.0000
  H   H44       1.0  0.08377  0.71255  0.02740  1.0000
  C   C105      1.0  0.36431  0.41054  0.33994  1.0000
  C   C106      1.0  0.36511  0.39000  0.26247  1.0000
  C   C107      1.0  0.38606  0.36907  0.26246  1.0000
  C   C108      1.0  0.40660  0.36824  0.33991  1.0000
  N   N21       1.0  0.38795  0.35217  0.18424  1.0000
  C   C109      1.0  0.37051  0.35373  0.10693  1.0000
  C   C110      1.0  0.34977  0.37446  0.10693  1.0000
  N   N22       1.0  0.34821  0.39190  0.18426  1.0000
  C   C111      1.0  0.37285  0.33554  0.02759  1.0000
  C   C112      1.0  0.33158  0.37681  0.02760  1.0000
  H   H45       1.0  0.38785  0.32069  0.02704  1.0000
  H   H46       1.0  0.31673  0.39181  0.02706  1.0000
  C   C113      1.0  0.61868  0.97433  0.33999  1.0000
  C   C114      1.0  0.63925  0.99563  0.26252  1.0000
  C   C115      1.0  0.66020  0.03752  0.26250  1.0000
  C   C116      1.0  0.66094  0.05884  0.33997  1.0000
  N   N23       1.0  0.67712  0.05631  0.18430  1.0000
  C   C117      1.0  0.67559  0.03730  0.10701  1.0000
  C   C118      1.0  0.65485  0.99583  0.10702  1.0000
  N   N24       1.0  0.63738  0.97683  0.18432  1.0000
  C   C119      1.0  0.69380  0.05783  0.02767  1.0000
  C   C120      1.0  0.65252  0.97529  0.02770  1.0000
  H   H47       1.0  0.70865  0.08768  0.02712  1.0000
  H   H48       1.0  0.63753  0.94544  0.02716  1.0000
  C   C121      1.0  0.09520  0.43999  0.33615  1.0000
  N   N25       1.0  0.12621  0.43353  0.33745  1.0000
  C   C122      1.0  0.16393  0.46414  0.34140  1.0000
  N   N26       1.0  0.17007  0.50134  0.34356  1.0000
  C   C123      1.0  0.13974  0.50838  0.34063  1.0000
  N   N27       1.0  0.10280  0.47754  0.33746  1.0000
  C   C124      1.0  0.58929  0.67574  0.33619  1.0000
  N   N28       1.0  0.59576  0.71320  0.33753  1.0000
  C   C125      1.0  0.56515  0.72032  0.34145  1.0000
  N   N29       1.0  0.52794  0.68927  0.34357  1.0000
  C   C126      1.0  0.52090  0.65189  0.34062  1.0000
  N   N30       1.0  0.55174  0.64580  0.33747  1.0000
  C   C127      1.0  0.35350  0.93404  0.33642  1.0000
  N   N31       1.0  0.31604  0.90303  0.33752  1.0000
  C   C128      1.0  0.30893  0.86530  0.34136  1.0000
  N   N32       1.0  0.33999  0.85917  0.34352  1.0000
  C   C129      1.0  0.37736  0.88950  0.34068  1.0000
  N   N33       1.0  0.38345  0.92644  0.33762  1.0000
  C   C130      1.0  0.93011  0.59319  0.33645  1.0000
  N   N34       1.0  0.89911  0.59965  0.33760  1.0000
  C   C131      1.0  0.86138  0.56904  0.34136  1.0000
  N   N35       1.0  0.85523  0.53183  0.34347  1.0000
  C   C132      1.0  0.88557  0.52479  0.34059  1.0000
  N   N36       1.0  0.92251  0.55564  0.33761  1.0000
  C   C133      1.0  0.43604  0.35743  0.33618  1.0000
  N   N37       1.0  0.42958  0.31997  0.33750  1.0000
  C   C134      1.0  0.46019  0.31285  0.34143  1.0000
  N   N38       1.0  0.49739  0.34391  0.34358  1.0000
  C   C135      1.0  0.50444  0.38128  0.34063  1.0000
  N   N39       1.0  0.47359  0.38738  0.33747  1.0000
  C   C136      1.0  0.67180  0.09910  0.33617  1.0000
  N   N40       1.0  0.70926  0.13010  0.33751  1.0000
  C   C137      1.0  0.71637  0.16783  0.34145  1.0000
  N   N41       1.0  0.68532  0.17397  0.34358  1.0000
  C   C138      1.0  0.64794  0.14364  0.34063  1.0000
  N   N42       1.0  0.64185  0.10670  0.33746  1.0000
  C   C139      1.0  0.43604  0.09911  0.33639  1.0000
  N   N43       1.0  0.42959  0.13012  0.33757  1.0000
  C   C140      1.0  0.46021  0.16785  0.34145  1.0000
  N   N44       1.0  0.49741  0.17398  0.34360  1.0000
  C   C141      1.0  0.50444  0.14364  0.34072  1.0000
  N   N45       1.0  0.47359  0.10671  0.33761  1.0000
  C   C142      1.0  0.67179  0.59318  0.33632  1.0000
  N   N46       1.0  0.70925  0.59965  0.33750  1.0000
  C   C143      1.0  0.71637  0.56903  0.34131  1.0000
  N   N47       1.0  0.68531  0.53183  0.34346  1.0000
  C   C144      1.0  0.64793  0.52478  0.34056  1.0000
  N   N48       1.0  0.64184  0.55563  0.33754  1.0000
  C   C145      1.0  0.93010  0.35742  0.33619  1.0000
  N   N49       1.0  0.89909  0.31997  0.33750  1.0000
  C   C146      1.0  0.86137  0.31287  0.34143  1.0000
  N   N50       1.0  0.85524  0.34394  0.34358  1.0000
  C   C147      1.0  0.88558  0.38130  0.34062  1.0000
  N   N51       1.0  0.92252  0.38738  0.33745  1.0000
  C   C148      1.0  0.58927  0.93406  0.33623  1.0000
  N   N52       1.0  0.59574  0.90307  0.33750  1.0000
  C   C149      1.0  0.56514  0.86534  0.34139  1.0000
  N   N53       1.0  0.52793  0.85918  0.34353  1.0000
  C   C150      1.0  0.52088  0.88951  0.34060  1.0000
  N   N54       1.0  0.55172  0.92645  0.33748  1.0000
  C   C151      1.0  0.35351  0.43999  0.33635  1.0000
  N   N55       1.0  0.31606  0.43355  0.33752  1.0000
  C   C152      1.0  0.30895  0.46416  0.34141  1.0000
  N   N56       1.0  0.34001  0.50136  0.34358  1.0000
  C   C153      1.0  0.37739  0.50839  0.34070  1.0000
  N   N57       1.0  0.38347  0.47754  0.33759  1.0000
  C   C154      1.0  0.09518  0.67572  0.33642  1.0000
  N   N58       1.0  0.12617  0.71318  0.33757  1.0000
  C   C155      1.0  0.16391  0.72031  0.34134  1.0000
  N   N59       1.0  0.17007  0.68926  0.34346  1.0000
  C   C156      1.0  0.13974  0.65188  0.34061  1.0000
  N   N60       1.0  0.10280  0.64577  0.33763  1.0000
  C   C157      1.0  0.22279  0.47260  0.41781  1.0000
  C   C158      1.0  0.25855  0.47262  0.41781  1.0000
  H   H49       1.0  0.27630  0.48340  0.47309  1.0000
  H   H50       1.0  0.21580  0.48338  0.47308  1.0000
  C   C159      1.0  0.19225  0.41146  0.61822  1.0000
  C   C160      1.0  0.22795  0.41148  0.61820  1.0000
  H   H51       1.0  0.17628  0.40540  0.56030  1.0000
  H   H52       1.0  0.23787  0.40543  0.56027  1.0000
  C   C161      1.0  0.55668  0.77072  0.41788  1.0000
  C   C162      1.0  0.55666  0.80647  0.41785  1.0000
  H   H53       1.0  0.54590  0.81346  0.47313  1.0000
  H   H54       1.0  0.54590  0.75297  0.47315  1.0000
  C   C163      1.0  0.61778  0.80128  0.61828  1.0000
  C   C164      1.0  0.61777  0.83696  0.61826  1.0000
  H   H55       1.0  0.62385  0.79137  0.56037  1.0000
  H   H56       1.0  0.62383  0.85293  0.56033  1.0000
  C   C165      1.0  0.25852  0.80646  0.41777  1.0000
  C   C166      1.0  0.22276  0.77070  0.41775  1.0000
  H   H57       1.0  0.21577  0.75296  0.47303  1.0000
  H   H58       1.0  0.27627  0.81343  0.47304  1.0000
  C   C167      1.0  0.22795  0.83700  0.61814  1.0000
  C   C168      1.0  0.19226  0.80132  0.61814  1.0000
  H   H59       1.0  0.23787  0.85297  0.56021  1.0000
  H   H60       1.0  0.17628  0.79141  0.56021  1.0000
  C   C169      1.0  0.80253  0.56060  0.41785  1.0000
  C   C170      1.0  0.76677  0.56058  0.41782  1.0000
  H   H61       1.0  0.74903  0.54984  0.47311  1.0000
  H   H62       1.0  0.80951  0.54984  0.47313  1.0000
  C   C171      1.0  0.83307  0.62168  0.61820  1.0000
  C   C172      1.0  0.79737  0.62168  0.61818  1.0000
  H   H63       1.0  0.84905  0.62776  0.56029  1.0000
  H   H64       1.0  0.78747  0.62775  0.56026  1.0000
  C   C173      1.0  0.46865  0.26245  0.41785  1.0000
  C   C174      1.0  0.46867  0.22671  0.41785  1.0000
  H   H65       1.0  0.47945  0.21973  0.47312  1.0000
  H   H66       1.0  0.47943  0.28021  0.47311  1.0000
  C   C175      1.0  0.40751  0.23185  0.61827  1.0000
  C   C176      1.0  0.40753  0.19618  0.61825  1.0000
  H   H67       1.0  0.40145  0.24177  0.56036  1.0000
  H   H68       1.0  0.40148  0.18021  0.56032  1.0000
  C   C177      1.0  0.76676  0.22670  0.41791  1.0000
  C   C178      1.0  0.80250  0.26247  0.41791  1.0000
  H   H69       1.0  0.80949  0.28021  0.47319  1.0000
  H   H70       1.0  0.74901  0.21971  0.47319  1.0000
  C   C179      1.0  0.79737  0.19618  0.61831  1.0000
  C   C180      1.0  0.83305  0.23188  0.61830  1.0000
  H   H71       1.0  0.78747  0.18020  0.56040  1.0000
  H   H72       1.0  0.84903  0.24179  0.56039  1.0000
  C   C181      1.0  0.14511  0.54657  0.33961  1.0000
  C   C182      1.0  0.15758  0.57098  0.41660  1.0000
  C   C183      1.0  0.15757  0.60713  0.41659  1.0000
  C   C184      1.0  0.14510  0.61905  0.33958  1.0000
  N   N61       1.0  0.16716  0.62823  0.49425  1.0000
  C   C185      1.0  0.17693  0.61671  0.57128  1.0000
  C   C186      1.0  0.17693  0.58077  0.57130  1.0000
  N   N62       1.0  0.16716  0.55948  0.49428  1.0000
  C   C187      1.0  0.18610  0.63914  0.65056  1.0000
  C   C188      1.0  0.18610  0.56752  0.65059  1.0000
  H   H73       1.0  0.18592  0.66498  0.65115  1.0000
  H   H74       1.0  0.18592  0.54151  0.65120  1.0000
  C   C189      1.0  0.48272  0.61905  0.33958  1.0000
  C   C190      1.0  0.45831  0.60715  0.41656  1.0000
  C   C191      1.0  0.42216  0.57099  0.41658  1.0000
  C   C192      1.0  0.41022  0.54657  0.33962  1.0000
  N   N63       1.0  0.40107  0.55950  0.49426  1.0000
  C   C193      1.0  0.41259  0.58080  0.57128  1.0000
  C   C194      1.0  0.44853  0.61674  0.57126  1.0000
  N   N64       1.0  0.46982  0.62824  0.49422  1.0000
  C   C195      1.0  0.39018  0.56755  0.65058  1.0000
  C   C196      1.0  0.46180  0.63917  0.65053  1.0000
  H   H75       1.0  0.36434  0.54153  0.65119  1.0000
  H   H76       1.0  0.48782  0.66500  0.65112  1.0000
  C   C197      1.0  0.41019  0.88414  0.33961  1.0000
  C   C198      1.0  0.42214  0.87167  0.41658  1.0000
  C   C199      1.0  0.45830  0.87169  0.41656  1.0000
  C   C200      1.0  0.48270  0.88416  0.33956  1.0000
  N   N65       1.0  0.46981  0.86210  0.49422  1.0000
  C   C201      1.0  0.44853  0.85233  0.57126  1.0000
  C   C202      1.0  0.41259  0.85232  0.57129  1.0000
  N   N66       1.0  0.40106  0.86208  0.49427  1.0000
  C   C203      1.0  0.46180  0.84316  0.65053  1.0000
  C   C204      1.0  0.39017  0.84315  0.65059  1.0000
  H   H77       1.0  0.48782  0.84334  0.65111  1.0000
  H   H78       1.0  0.36434  0.84333  0.65122  1.0000
  C   C205      1.0  0.88024  0.48662  0.33954  1.0000
  C   C206      1.0  0.86774  0.46221  0.41652  1.0000
  C   C207      1.0  0.86775  0.42606  0.41652  1.0000
  C   C208      1.0  0.88026  0.41415  0.33956  1.0000
  N   N67       1.0  0.85815  0.40497  0.49420  1.0000
  C   C209      1.0  0.84836  0.41648  0.57121  1.0000
  C   C210      1.0  0.84835  0.45241  0.57120  1.0000
  N   N68       1.0  0.85813  0.47370  0.49418  1.0000
  C   C211      1.0  0.83920  0.39405  0.65050  1.0000
  C   C212      1.0  0.83917  0.46566  0.65048  1.0000
  H   H79       1.0  0.83939  0.36822  0.65110  1.0000
  H   H80       1.0  0.83936  0.49168  0.65108  1.0000
  C   C213      1.0  0.54263  0.41411  0.33960  1.0000
  C   C214      1.0  0.56703  0.42604  0.41658  1.0000
  C   C215      1.0  0.60318  0.46221  0.41657  1.0000
  C   C216      1.0  0.61510  0.48660  0.33956  1.0000
  N   N69       1.0  0.62428  0.47371  0.49422  1.0000
  C   C217      1.0  0.61277  0.45243  0.57126  1.0000
  C   C218      1.0  0.57684  0.41649  0.57128  1.0000
  N   N70       1.0  0.55554  0.40496  0.49426  1.0000
  C   C219      1.0  0.63521  0.46570  0.65053  1.0000
  C   C220      1.0  0.56359  0.39407  0.65058  1.0000
  H   H81       1.0  0.66104  0.49172  0.65111  1.0000
  H   H82       1.0  0.53757  0.36823  0.65120  1.0000
  C   C221      1.0  0.61510  0.14897  0.33959  1.0000
  C   C222      1.0  0.60319  0.16147  0.41658  1.0000
  C   C223      1.0  0.56704  0.16147  0.41660  1.0000
  C   C224      1.0  0.54261  0.14898  0.33963  1.0000
  N   N71       1.0  0.55555  0.17106  0.49428  1.0000
  C   C225      1.0  0.57685  0.18084  0.57129  1.0000
  C   C226      1.0  0.61278  0.18084  0.57127  1.0000
  N   N72       1.0  0.62429  0.17106  0.49424  1.0000
  C   C227      1.0  0.56359  0.19000  0.65059  1.0000
  C   C228      1.0  0.63522  0.19001  0.65054  1.0000
  H   H83       1.0  0.53758  0.18983  0.65121  1.0000
  H   H84       1.0  0.66105  0.18982  0.65113  1.0000
  C   C229      1.0  0.03326  0.40944  0.41664  1.0000
  C   C230      1.0  0.99206  0.38886  0.41663  1.0000
  H   H85       1.0  0.97794  0.39120  0.47206  1.0000
  H   H86       1.0  0.04738  0.42594  0.47204  1.0000
  C   C231      1.0  0.03325  0.35816  0.61535  1.0000
  C   C232      1.0  0.99205  0.33755  0.61536  1.0000
  H   H87       1.0  0.04820  0.35961  0.55797  1.0000
  H   H88       1.0  0.97710  0.32405  0.55798  1.0000
  C   C233      1.0  0.61983  0.64438  0.41693  1.0000
  C   C234      1.0  0.64039  0.62374  0.41692  1.0000
  H   H89       1.0  0.63813  0.60735  0.47243  1.0000
  H   H90       1.0  0.60340  0.64210  0.47239  1.0000
  C   C235      1.0  0.67124  0.69568  0.61558  1.0000
  C   C236      1.0  0.69183  0.67507  0.61561  1.0000
  H   H91       1.0  0.66981  0.70920  0.55820  1.0000
  H   H92       1.0  0.70534  0.67363  0.55826  1.0000
  C   C237      1.0  0.38491  0.99597  0.41681  1.0000
  C   C238      1.0  0.40553  0.03718  0.41678  1.0000
  H   H93       1.0  0.42199  0.05130  0.47221  1.0000
  H   H94       1.0  0.38727  0.98185  0.47221  1.0000
  C   C239      1.0  0.33360  0.99596  0.61549  1.0000
  C   C240      1.0  0.35420  0.03717  0.61549  1.0000
  H   H95       1.0  0.32010  0.98102  0.55812  1.0000
  H   H96       1.0  0.35564  0.05211  0.55811  1.0000
  C   C241      1.0  0.99204  0.62375  0.41712  1.0000
  C   C242      1.0  0.03324  0.64431  0.41707  1.0000
  H   H97       1.0  0.04739  0.64207  0.47257  1.0000
  H   H98       1.0  0.97791  0.60733  0.47259  1.0000
  C   C243      1.0  0.99205  0.67510  0.61578  1.0000
  C   C244      1.0  0.03325  0.69569  0.61578  1.0000
  H   H99       1.0  0.97710  0.67366  0.55840  1.0000
  H   H100      1.0  0.04820  0.70920  0.55840  1.0000
  C   C245      1.0  0.40552  0.38885  0.41670  1.0000
  C   C246      1.0  0.38494  0.40947  0.41670  1.0000
  H   H101      1.0  0.38729  0.42594  0.47214  1.0000
  H   H102      1.0  0.42201  0.39121  0.47208  1.0000
  C   C247      1.0  0.35421  0.33757  0.61541  1.0000
  C   C248      1.0  0.33361  0.35817  0.61541  1.0000
  H   H103      1.0  0.35566  0.32407  0.55802  1.0000
  H   H104      1.0  0.32011  0.35962  0.55803  1.0000
  C   C249      1.0  0.64044  0.03719  0.41688  1.0000
  C   C250      1.0  0.61980  0.99599  0.41685  1.0000
  H   H105      1.0  0.60342  0.98185  0.47235  1.0000
  H   H106      1.0  0.63816  0.05133  0.47233  1.0000
  C   C251      1.0  0.69179  0.03716  0.61551  1.0000
  C   C252      1.0  0.67119  0.99595  0.61553  1.0000
  H   H107      1.0  0.70530  0.05210  0.55814  1.0000
  H   H108      1.0  0.66975  0.98100  0.55816  1.0000
