data_image0
_chemical_formula_structural       C2NC2NC2NC2NC2NC2N2CHNCHNCHC2NC2NC2NC2NC2NC2NC2NC2NC2NC2NC2NC2N2CHNCHNCHNCHNCHNCHC2NC2NC2NC2NC2NC2NC2NC2NC2NC2NC2NC2NCNCNCNCNCNCNCNCNCNCNCNCNCNCNCNCNCNCNCNCNCNCNCNCNCNCNCNCNCNCNCNCNCNCNCNCNCNCNCNCNCNCNCNCNCNCNCNCN2CHNCHNCHC2NC2NC2NC2NC2NC2N2CHNCHNCHNCHNCHNCHC2NC2NC2NC2NC2NC2NC2NC2NC2NC2NC2NC2N2CHNCHNCHNCHNCHNCH
_chemical_formula_sum              "C168 N120 H24"
_cell_length_a       41.4641
_cell_length_b       41.4641
_cell_length_c       14.8823
_cell_angle_alpha    90
_cell_angle_beta     90
_cell_angle_gamma    120

_space_group_name_H-M_alt    "P 1"
_space_group_IT_number       1

loop_
  _space_group_symop_operation_xyz
  'x, y, z'

loop_
  _atom_site_type_symbol
  _atom_site_label
  _atom_site_symmetry_multiplicity
  _atom_site_fract_x
  _atom_site_fract_y
  _atom_site_fract_z
  _atom_site_occupancy
  C   C1        1.0  0.00380  0.14060  0.33910  1.0000
  C   C2        1.0  0.00683  0.07277  0.33941  1.0000
  N   N1        1.0  0.97433  0.07342  0.33477  1.0000
  C   C3        1.0  0.97116  0.10469  0.33416  1.0000
  C   C4        1.0  0.93733  0.09878  0.32964  1.0000
  N   N2        1.0  0.90736  0.09337  0.32556  1.0000
  C   C5        1.0  0.86924  0.86499  0.33910  1.0000
  C   C6        1.0  0.93705  0.93587  0.33939  1.0000
  N   N3        1.0  0.93641  0.90272  0.33478  1.0000
  C   C7        1.0  0.90515  0.86828  0.33417  1.0000
  C   C8        1.0  0.91108  0.84036  0.32966  1.0000
  N   N4        1.0  0.91650  0.81582  0.32560  1.0000
  C   C9        1.0  0.14480  0.00603  0.33900  1.0000
  C   C10       1.0  0.07393  0.00298  0.33936  1.0000
  N   N5        1.0  0.10708  0.03549  0.33475  1.0000
  C   C11       1.0  0.14152  0.03867  0.33412  1.0000
  C   C12       1.0  0.16943  0.07251  0.32964  1.0000
  N   N6        1.0  0.19398  0.10248  0.32560  1.0000
  N   N7        1.0  0.10582  0.28921  0.33119  1.0000
  C   C13       1.0  0.13597  0.32458  0.32996  1.0000
  H   H1        1.0  0.16020  0.32914  0.30089  1.0000
  N   N8        1.0  0.72070  0.81850  0.33124  1.0000
  C   C14       1.0  0.68536  0.81333  0.32995  1.0000
  H   H2        1.0  0.68087  0.83308  0.30115  1.0000
  N   N9        1.0  0.19138  0.90403  0.33103  1.0000
  C   C15       1.0  0.19659  0.87388  0.32980  1.0000
  H   H3        1.0  0.17685  0.84961  0.30105  1.0000
  C   C16       1.0  0.28335  0.06739  0.31785  1.0000
  C   C17       1.0  0.35774  0.12807  0.32365  1.0000
  N   N10       1.0  0.34901  0.09376  0.29353  1.0000
  C   C18       1.0  0.31423  0.06393  0.28816  1.0000
  C   C19       1.0  0.31275  0.03431  0.25397  1.0000
  N   N11       1.0  0.31173  0.00831  0.22383  1.0000
  C   C20       1.0  0.79197  0.72642  0.31821  1.0000
  C   C21       1.0  0.77819  0.65200  0.32419  1.0000
  N   N12       1.0  0.75264  0.66076  0.29404  1.0000
  C   C22       1.0  0.75762  0.69555  0.28858  1.0000
  C   C23       1.0  0.72950  0.69704  0.25430  1.0000
  N   N13       1.0  0.70455  0.69809  0.22409  1.0000
  C   C24       1.0  0.94252  0.21790  0.31820  1.0000
  C   C25       1.0  0.88185  0.23163  0.32399  1.0000
  N   N14       1.0  0.91619  0.25723  0.29412  1.0000
  C   C26       1.0  0.94603  0.25228  0.28877  1.0000
  C   C27       1.0  0.97567  0.28046  0.25473  1.0000
  N   N15       1.0  0.00168  0.30545  0.22471  1.0000
  C   C28       1.0  0.33878  0.49300  0.33759  1.0000
  C   C29       1.0  0.26098  0.46114  0.34916  1.0000
  N   N16       1.0  0.27684  0.44010  0.33173  1.0000
  C   C30       1.0  0.31414  0.45394  0.32540  1.0000
  C   C31       1.0  0.32371  0.42918  0.30723  1.0000
  N   N17       1.0  0.33191  0.40715  0.29093  1.0000
  C   C32       1.0  0.51710  0.84800  0.33777  1.0000
  C   C33       1.0  0.54888  0.80200  0.34911  1.0000
  N   N18       1.0  0.56996  0.83890  0.33176  1.0000
  C   C34       1.0  0.55615  0.86239  0.32553  1.0000
  C   C35       1.0  0.58093  0.89672  0.30739  1.0000
  N   N19       1.0  0.60296  0.92695  0.29112  1.0000
  C   C36       1.0  0.16202  0.67105  0.33750  1.0000
  C   C37       1.0  0.20807  0.74884  0.34877  1.0000
  N   N20       1.0  0.17113  0.73302  0.33182  1.0000
  C   C38       1.0  0.14762  0.69573  0.32562  1.0000
  C   C39       1.0  0.11326  0.68619  0.30801  1.0000
  N   N21       1.0  0.08300  0.67802  0.29221  1.0000
  N   N22       1.0  0.51502  0.31896  0.32060  1.0000
  C   C40       1.0  0.50100  0.28174  0.31597  1.0000
  H   H4        1.0  0.51809  0.27226  0.29386  1.0000
  N   N23       1.0  0.81167  0.49464  0.32126  1.0000
  C   C41       1.0  0.78847  0.50867  0.31659  1.0000
  H   H5        1.0  0.76192  0.49161  0.29438  1.0000
  N   N24       1.0  0.69106  0.19812  0.31822  1.0000
  C   C42       1.0  0.72830  0.22115  0.31302  1.0000
  H   H6        1.0  0.73788  0.24748  0.28911  1.0000
  N   N25       1.0  0.18837  0.52082  0.35866  1.0000
  C   C43       1.0  0.18288  0.55051  0.35528  1.0000
  H   H7        1.0  0.20514  0.57687  0.35057  1.0000
  N   N26       1.0  0.48904  0.66967  0.35848  1.0000
  C   C44       1.0  0.45933  0.63450  0.35518  1.0000
  H   H8        1.0  0.43299  0.63043  0.35022  1.0000
  N   N27       1.0  0.34044  0.82147  0.35839  1.0000
  C   C45       1.0  0.37564  0.82699  0.35531  1.0000
  H   H9        1.0  0.37975  0.80475  0.35015  1.0000
  C   C46       1.0  0.48749  0.15810  0.32368  1.0000
  C   C47       1.0  0.54743  0.14412  0.32345  1.0000
  N   N28       1.0  0.51122  0.11676  0.31282  1.0000
  C   C48       1.0  0.48123  0.12152  0.31216  1.0000
  C   C49       1.0  0.44895  0.09174  0.30084  1.0000
  N   N29       1.0  0.42051  0.06537  0.29080  1.0000
  C   C50       1.0  0.67835  0.52231  0.32440  1.0000
  C   C51       1.0  0.60437  0.46245  0.32394  1.0000
  N   N30       1.0  0.61331  0.49869  0.31331  1.0000
  C   C52       1.0  0.64809  0.52864  0.31279  1.0000
  C   C53       1.0  0.65065  0.56094  0.30139  1.0000
  N   N31       1.0  0.65278  0.58941  0.29129  1.0000
  C   C54       1.0  0.85189  0.33140  0.32423  1.0000
  C   C55       1.0  0.86594  0.40535  0.32421  1.0000
  N   N32       1.0  0.89328  0.39646  0.31364  1.0000
  C   C56       1.0  0.88849  0.36170  0.31292  1.0000
  C   C57       1.0  0.91826  0.35919  0.30160  1.0000
  N   N33       1.0  0.94462  0.35709  0.29157  1.0000
  C   C58       1.0  0.04417  0.56011  0.29787  1.0000
  C   C59       1.0  0.96717  0.52574  0.30232  1.0000
  N   N34       1.0  0.98478  0.50751  0.27370  1.0000
  C   C60       1.0  0.02195  0.52274  0.26851  1.0000
  C   C61       1.0  0.03360  0.50075  0.23919  1.0000
  N   N35       1.0  0.04370  0.48118  0.21361  1.0000
  C   C62       1.0  0.44977  0.48620  0.29830  1.0000
  C   C63       1.0  0.48406  0.44350  0.30226  1.0000
  N   N36       1.0  0.50235  0.47939  0.27401  1.0000
  C   C64       1.0  0.48715  0.50136  0.26907  1.0000
  C   C65       1.0  0.50920  0.53505  0.24005  1.0000
  N   N37       1.0  0.52882  0.56476  0.21472  1.0000
  C   C66       1.0  0.52394  0.96586  0.29922  1.0000
  C   C67       1.0  0.56658  0.04286  0.30308  1.0000
  N   N38       1.0  0.53072  0.02521  0.27463  1.0000
  C   C68       1.0  0.50877  0.98805  0.26972  1.0000
  C   C69       1.0  0.47512  0.97639  0.24046  1.0000
  N   N39       1.0  0.44544  0.96628  0.21492  1.0000
  C   C70       1.0  0.97199  0.97060  0.33945  1.0000
  N   N40       1.0  0.00530  0.97115  0.33942  1.0000
  C   C71       1.0  0.03921  0.00321  0.33943  1.0000
  N   N41       1.0  0.03866  0.03597  0.33943  1.0000
  C   C72       1.0  0.00660  0.03781  0.33945  1.0000
  N   N42       1.0  0.97384  0.00451  0.33944  1.0000
  C   C73       1.0  0.97367  0.21186  0.32738  1.0000
  N   N43       1.0  0.97343  0.17880  0.32900  1.0000
  C   C74       1.0  0.00513  0.17632  0.33946  1.0000
  N   N44       1.0  0.03818  0.20939  0.35077  1.0000
  C   C75       1.0  0.03993  0.24331  0.35357  1.0000
  N   N45       1.0  0.00725  0.24237  0.34066  1.0000
  C   C76       1.0  0.79799  0.76359  0.32745  1.0000
  N   N46       1.0  0.83105  0.79642  0.32904  1.0000
  C   C77       1.0  0.83353  0.83060  0.33946  1.0000
  N   N47       1.0  0.80046  0.83058  0.35072  1.0000
  C   C78       1.0  0.76654  0.79841  0.35347  1.0000
  N   N48       1.0  0.76748  0.76666  0.34063  1.0000
  C   C79       1.0  0.24620  0.03622  0.32722  1.0000
  N   N49       1.0  0.21336  0.03643  0.32884  1.0000
  C   C80       1.0  0.17919  0.00472  0.33931  1.0000
  N   N50       1.0  0.17924  0.97168  0.35054  1.0000
  C   C81       1.0  0.21143  0.96996  0.35321  1.0000
  N   N51       1.0  0.24316  0.00265  0.34034  1.0000
  C   C82       1.0  0.22174  0.44449  0.35295  1.0000
  N   N52       1.0  0.19700  0.40699  0.35276  1.0000
  C   C83       1.0  0.15945  0.39344  0.35847  1.0000
  N   N53       1.0  0.14762  0.41885  0.36300  1.0000
  C   C84       1.0  0.17129  0.45634  0.36194  1.0000
  N   N54       1.0  0.20790  0.46783  0.35708  1.0000
  C   C85       1.0  0.56549  0.77936  0.35286  1.0000
  N   N55       1.0  0.60298  0.79207  0.35267  1.0000
  C   C86       1.0  0.61648  0.76803  0.35838  1.0000
  N   N56       1.0  0.59103  0.73080  0.36297  1.0000
  C   C87       1.0  0.55354  0.71703  0.36192  1.0000
  N   N57       1.0  0.54210  0.74219  0.35703  1.0000
  C   C88       1.0  0.23070  0.78808  0.35258  1.0000
  N   N58       1.0  0.21795  0.81283  0.35244  1.0000
  C   C89       1.0  0.24196  0.85038  0.35823  1.0000
  N   N59       1.0  0.27920  0.86219  0.36282  1.0000
  C   C90       1.0  0.29301  0.83851  0.36169  1.0000
  N   N60       1.0  0.26788  0.80190  0.35675  1.0000
  C   C91       1.0  0.44681  0.21813  0.33487  1.0000
  N   N61       1.0  0.40940  0.19314  0.33414  1.0000
  C   C92       1.0  0.39630  0.15568  0.32790  1.0000
  N   N62       1.0  0.42200  0.14424  0.32375  1.0000
  C   C93       1.0  0.45939  0.16820  0.32599  1.0000
  N   N63       1.0  0.47051  0.20471  0.33119  1.0000
  C   C94       1.0  0.77906  0.56286  0.33560  1.0000
  N   N64       1.0  0.79152  0.60028  0.33480  1.0000
  C   C95       1.0  0.76720  0.61343  0.32854  1.0000
  N   N65       1.0  0.73005  0.58775  0.32442  1.0000
  C   C96       1.0  0.71658  0.55036  0.32672  1.0000
  N   N66       1.0  0.74194  0.53920  0.33195  1.0000
  C   C97       1.0  0.79180  0.23067  0.33447  1.0000
  N   N67       1.0  0.81678  0.21823  0.33402  1.0000
  C   C98       1.0  0.85425  0.24259  0.32815  1.0000
  N   N68       1.0  0.86570  0.27974  0.32422  1.0000
  C   C99       1.0  0.84175  0.29318  0.32629  1.0000
  N   N69       1.0  0.80524  0.26780  0.33105  1.0000
  C   C100      1.0  0.13527  0.57097  0.34271  1.0000
  N   N70       1.0  0.15679  0.60898  0.34589  1.0000
  C   C101      1.0  0.14150  0.63145  0.33333  1.0000
  N   N71       1.0  0.10445  0.61476  0.31674  1.0000
  C   C102      1.0  0.08271  0.57754  0.31077  1.0000
  N   N72       1.0  0.09871  0.55675  0.32538  1.0000
  C   C103      1.0  0.43884  0.56641  0.34294  1.0000
  N   N73       1.0  0.40082  0.54989  0.34602  1.0000
  C   C104      1.0  0.37838  0.51214  0.33343  1.0000
  N   N74       1.0  0.39509  0.49180  0.31694  1.0000
  C   C105      1.0  0.43232  0.50730  0.31110  1.0000
  N   N75       1.0  0.45308  0.54409  0.32570  1.0000
  C   C106      1.0  0.44371  0.87466  0.34330  1.0000
  N   N76       1.0  0.46023  0.85316  0.34621  1.0000
  C   C107      1.0  0.49799  0.86850  0.33375  1.0000
  N   N77       1.0  0.51835  0.90558  0.31756  1.0000
  C   C108      1.0  0.50284  0.92730  0.31183  1.0000
  N   N78       1.0  0.46604  0.91125  0.32632  1.0000
  C   C109      1.0  0.57522  0.13370  0.32458  1.0000
  N   N79       1.0  0.61273  0.15582  0.33762  1.0000
  C   C110      1.0  0.63574  0.14087  0.34080  1.0000
  N   N80       1.0  0.62065  0.10366  0.32832  1.0000
  C   C111      1.0  0.58390  0.08137  0.31378  1.0000
  N   N81       1.0  0.56223  0.09700  0.31291  1.0000
  C   C112      1.0  0.56615  0.43472  0.32478  1.0000
  N   N82       1.0  0.55068  0.39720  0.33776  1.0000
  C   C113      1.0  0.51270  0.37420  0.34039  1.0000
  N   N83       1.0  0.49067  0.38937  0.32761  1.0000
  C   C114      1.0  0.50520  0.42613  0.31313  1.0000
  N   N84       1.0  0.54250  0.44776  0.31269  1.0000
  C   C115      1.0  0.87638  0.44356  0.32519  1.0000
  N   N85       1.0  0.85429  0.45898  0.33836  1.0000
  C   C116      1.0  0.86923  0.49695  0.34114  1.0000
  N   N86       1.0  0.90642  0.51903  0.32816  1.0000
  C   C117      1.0  0.92868  0.50455  0.31350  1.0000
  N   N87       1.0  0.91305  0.46725  0.31298  1.0000
  N   N88       1.0  0.03633  0.13979  0.34387  1.0000
  C   C118      1.0  0.03927  0.10836  0.34404  1.0000
  H   H10       1.0  0.06509  0.11107  0.34790  1.0000
  N   N89       1.0  0.87003  0.89833  0.34385  1.0000
  C   C119      1.0  0.90146  0.93270  0.34400  1.0000
  H   H11       1.0  0.89872  0.95580  0.34787  1.0000
  N   N90       1.0  0.11146  0.97349  0.34375  1.0000
  C   C120      1.0  0.07710  0.97055  0.34392  1.0000
  H   H12       1.0  0.05399  0.94472  0.34778  1.0000
  C   C121      1.0  0.07172  0.28002  0.36571  1.0000
  C   C122      1.0  0.13218  0.35470  0.36172  1.0000
  N   N91       1.0  0.09856  0.34529  0.39782  1.0000
  C   C123      1.0  0.06899  0.31033  0.40293  1.0000
  C   C124      1.0  0.04010  0.30810  0.44352  1.0000
  N   N92       1.0  0.01471  0.30637  0.47912  1.0000
  C   C125      1.0  0.72984  0.79352  0.36560  1.0000
  C   C126      1.0  0.65519  0.77942  0.36161  1.0000
  N   N93       1.0  0.66454  0.75514  0.39751  1.0000
  C   C127      1.0  0.69947  0.76045  0.40258  1.0000
  C   C128      1.0  0.70163  0.73372  0.44298  1.0000
  N   N94       1.0  0.70329  0.70999  0.47842  1.0000
  C   C129      1.0  0.21635  0.93816  0.36527  1.0000
  C   C130      1.0  0.23052  0.87767  0.36145  1.0000
  N   N95       1.0  0.25478  0.91131  0.39733  1.0000
  C   C131      1.0  0.24943  0.94091  0.40236  1.0000
  C   C132      1.0  0.27613  0.96981  0.44276  1.0000
  N   N96       1.0  0.29985  0.99522  0.47820  1.0000
  N   N97       1.0  0.29186  0.10212  0.34627  1.0000
  C   C133      1.0  0.32713  0.13231  0.34857  1.0000
  H   H13       1.0  0.33111  0.15714  0.37234  1.0000
  N   N98       1.0  0.81816  0.71788  0.34669  1.0000
  C   C134      1.0  0.81305  0.68260  0.34908  1.0000
  H   H14       1.0  0.83388  0.67860  0.37289  1.0000
  N   N99       1.0  0.90776  0.19165  0.34635  1.0000
  C   C135      1.0  0.87758  0.19674  0.34865  1.0000
  H   H15       1.0  0.85272  0.17586  0.37220  1.0000
  N   N100      1.0  0.32268  0.51388  0.35524  1.0000
  C   C136      1.0  0.28546  0.49984  0.36132  1.0000
  H   H16       1.0  0.27601  0.51782  0.37500  1.0000
  N   N101      1.0  0.49620  0.81103  0.35534  1.0000
  C   C137      1.0  0.51019  0.78781  0.36132  1.0000
  H   H17       1.0  0.49219  0.76039  0.37496  1.0000
  N   N102      1.0  0.19902  0.68711  0.35469  1.0000
  C   C138      1.0  0.22226  0.72433  0.36063  1.0000
  H   H18       1.0  0.24971  0.73374  0.37395  1.0000
  C   C139      1.0  0.49500  0.33491  0.34775  1.0000
  C   C140      1.0  0.46316  0.25730  0.33822  1.0000
  N   N103      1.0  0.44308  0.27307  0.36608  1.0000
  C   C141      1.0  0.45709  0.31042  0.37203  1.0000
  C   C142      1.0  0.43434  0.32068  0.40350  1.0000
  N   N104      1.0  0.41414  0.32945  0.43206  1.0000
  C   C143      1.0  0.84763  0.51463  0.34856  1.0000
  C   C144      1.0  0.80186  0.54650  0.33894  1.0000
  N   N105      1.0  0.83770  0.56656  0.36693  1.0000
  C   C145      1.0  0.86103  0.55253  0.37292  1.0000
  C   C146      1.0  0.89402  0.57526  0.40451  1.0000
  N   N106      1.0  0.92297  0.59543  0.43319  1.0000
  C   C147      1.0  0.67502  0.16247  0.34789  1.0000
  C   C148      1.0  0.75264  0.20789  0.33753  1.0000
  N   N107      1.0  0.73678  0.17237  0.36794  1.0000
  C   C149      1.0  0.69940  0.14921  0.37435  1.0000
  C   C150      1.0  0.68897  0.11657  0.40851  1.0000
  N   N108      1.0  0.67998  0.08793  0.43946  1.0000
  C   C151      1.0  0.16082  0.48423  0.36270  1.0000
  C   C152      1.0  0.14608  0.54369  0.35391  1.0000
  N   N109      1.0  0.11873  0.50721  0.35860  1.0000
  C   C153      1.0  0.12381  0.47747  0.36381  1.0000
  C   C154      1.0  0.09387  0.44488  0.36663  1.0000
  N   N110      1.0  0.06735  0.41616  0.36909  1.0000
  C   C155      1.0  0.52561  0.67868  0.36278  1.0000
  C   C156      1.0  0.46612  0.60450  0.35417  1.0000
  N   N111      1.0  0.50259  0.61361  0.35911  1.0000
  C   C157      1.0  0.53234  0.64842  0.36430  1.0000
  C   C158      1.0  0.56491  0.65103  0.36734  1.0000
  N   N112      1.0  0.59361  0.65319  0.37000  1.0000
  C   C159      1.0  0.33137  0.84899  0.36268  1.0000
  C   C160      1.0  0.40560  0.86379  0.35436  1.0000
  N   N113      1.0  0.39644  0.89112  0.35921  1.0000
  C   C161      1.0  0.36160  0.88600  0.36426  1.0000
  C   C162      1.0  0.35893  0.91593  0.36722  1.0000
  N   N114      1.0  0.35673  0.94245  0.36980  1.0000
  N   N115      1.0  0.52379  0.18563  0.33413  1.0000
  C   C163      1.0  0.55369  0.18048  0.33447  1.0000
  H   H19       1.0  0.57985  0.20268  0.34330  1.0000
  N   N116      1.0  0.66951  0.48599  0.33488  1.0000
  C   C164      1.0  0.63442  0.45612  0.33514  1.0000
  H   H20       1.0  0.63040  0.42994  0.34394  1.0000
  N   N117      1.0  0.82438  0.34019  0.33465  1.0000
  C   C165      1.0  0.82956  0.37526  0.33514  1.0000
  H   H21       1.0  0.80737  0.37924  0.34384  1.0000
  N   N118      1.0  0.02664  0.57880  0.32492  1.0000
  C   C166      1.0  0.98914  0.56350  0.32624  1.0000
  H   H22       1.0  0.97771  0.57857  0.35055  1.0000
  N   N119      1.0  0.43100  0.44992  0.32488  1.0000
  C   C167      1.0  0.44629  0.42771  0.32609  1.0000
  H   H23       1.0  0.43116  0.40113  0.34981  1.0000
  N   N120      1.0  0.56019  0.98341  0.32605  1.0000
  C   C168      1.0  0.58237  0.02091  0.32727  1.0000
  H   H24       1.0  0.60894  0.03239  0.35116  1.0000
