data_image0
_chemical_formula_structural       C2NC2OHC2NC2OHNCHNCHNCHNCHC2NC2OHC2NC2OHC2NC2OHC2NC2OHNCHNCHNCHNCHC2NC2OHC2NC2OHC2NC2OHC2NC2OHCNCNCNCNCNCNCNCNCNCNCNCNCNCNCNCNCNCNCNCNCNCNCNCNCNCNCNCNCNCNCNCNCNCNCNCN2CHNCHC2NC2OHC2NC2OHC2NC2OHC2NC2OHNCHNCHNCHNCHC2NC2OHC2NC2OHC2NC2OHC2NC2OHNCHNCHNCHNCH
_chemical_formula_sum              "C126 N72 O18 H36"
_cell_length_a       33.8152
_cell_length_b       33.6541
_cell_length_c       14.8972
_cell_angle_alpha    90
_cell_angle_beta     90
_cell_angle_gamma    90.2807

_space_group_name_H-M_alt    "P 1"
_space_group_IT_number       1

loop_
  _space_group_symop_operation_xyz
  'x, y, z'

loop_
  _atom_site_type_symbol
  _atom_site_label
  _atom_site_symmetry_multiplicity
  _atom_site_fract_x
  _atom_site_fract_y
  _atom_site_fract_z
  _atom_site_occupancy
  C   C1        1.0  0.96888  0.52948  0.33043  1.0000
  C   C2        1.0  0.03094  0.47349  0.33473  1.0000
  N   N1        1.0  0.99245  0.46265  0.32474  1.0000
  C   C3        1.0  0.96111  0.48792  0.32220  1.0000
  C   C4        1.0  0.92404  0.47156  0.30790  1.0000
  O   O1        1.0  0.91763  0.43731  0.33127  1.0000
  H   H1        1.0  0.91120  0.47954  0.25083  1.0000
  C   C5        1.0  0.47253  0.96734  0.33389  1.0000
  C   C6        1.0  0.52907  0.02942  0.33928  1.0000
  N   N2        1.0  0.53939  0.99078  0.32878  1.0000
  C   C7        1.0  0.51381  0.95942  0.32571  1.0000
  C   C8        1.0  0.52977  0.92230  0.31074  1.0000
  O   O2        1.0  0.56378  0.91533  0.33354  1.0000
  H   H2        1.0  0.52144  0.90879  0.25454  1.0000
  N   N3        1.0  0.02434  0.27800  0.33865  1.0000
  C   C9        1.0  0.02923  0.31807  0.33481  1.0000
  H   H3        1.0  0.00494  0.33597  0.33148  1.0000
  N   N4        1.0  0.97721  0.72622  0.33492  1.0000
  C   C10       1.0  0.97205  0.68614  0.33144  1.0000
  H   H4        1.0  0.99622  0.66810  0.32748  1.0000
  N   N5        1.0  0.72443  0.02421  0.34094  1.0000
  C   C11       1.0  0.68445  0.02863  0.33781  1.0000
  H   H5        1.0  0.66672  0.00400  0.33412  1.0000
  N   N6        1.0  0.26304  0.91589  0.33256  1.0000
  C   C12       1.0  0.30106  0.90356  0.32833  1.0000
  H   H6        1.0  0.30646  0.87383  0.32213  1.0000
  C   C13       1.0  0.44306  0.74671  0.32679  1.0000
  C   C14       1.0  0.42999  0.82930  0.33349  1.0000
  N   N7        1.0  0.39989  0.80261  0.32716  1.0000
  C   C15       1.0  0.40400  0.76244  0.32410  1.0000
  C   C16       1.0  0.36994  0.74012  0.31398  1.0000
  O   O3        1.0  0.33899  0.75185  0.34681  1.0000
  H   H7        1.0  0.36673  0.72655  0.25522  1.0000
  C   C17       1.0  0.55751  0.25141  0.34000  1.0000
  C   C18       1.0  0.56972  0.16847  0.34495  1.0000
  N   N8        1.0  0.60006  0.19502  0.34104  1.0000
  C   C19       1.0  0.59640  0.23527  0.33918  1.0000
  C   C20       1.0  0.63067  0.25750  0.33195  1.0000
  O   O4        1.0  0.66027  0.24550  0.37038  1.0000
  H   H8        1.0  0.63583  0.26938  0.27219  1.0000
  C   C21       1.0  0.74868  0.55839  0.32897  1.0000
  C   C22       1.0  0.83122  0.57145  0.33442  1.0000
  N   N9        1.0  0.80486  0.60172  0.33111  1.0000
  C   C23       1.0  0.76481  0.59762  0.32903  1.0000
  C   C24       1.0  0.74279  0.63197  0.32265  1.0000
  O   O5        1.0  0.75426  0.66144  0.36313  1.0000
  H   H9        1.0  0.73181  0.63718  0.26204  1.0000
  C   C25       1.0  0.25226  0.44269  0.33655  1.0000
  C   C26       1.0  0.16938  0.43236  0.34092  1.0000
  N   N10       1.0  0.19487  0.40131  0.33710  1.0000
  C   C27       1.0  0.23500  0.40400  0.33541  1.0000
  C   C28       1.0  0.25581  0.36898  0.32788  1.0000
  O   O6        1.0  0.24249  0.33860  0.36154  1.0000
  H   H10       1.0  0.26961  0.36474  0.26985  1.0000
  N   N11       1.0  0.12309  0.11023  0.33281  1.0000
  C   C29       1.0  0.14806  0.07860  0.32740  1.0000
  H   H11       1.0  0.17159  0.07962  0.28437  1.0000
  N   N12       1.0  0.87818  0.89426  0.33128  1.0000
  C   C30       1.0  0.85258  0.92552  0.32861  1.0000
  H   H12       1.0  0.82912  0.92484  0.28537  1.0000
  N   N13       1.0  0.89177  0.12682  0.32654  1.0000
  C   C31       1.0  0.92344  0.15196  0.32230  1.0000
  H   H13       1.0  0.92543  0.17206  0.27100  1.0000
  N   N14       1.0  0.11058  0.87734  0.31851  1.0000
  C   C32       1.0  0.07840  0.85279  0.31351  1.0000
  H   H14       1.0  0.07547  0.83393  0.26009  1.0000
  C   C33       1.0  0.40675  0.60710  0.28646  1.0000
  C   C34       1.0  0.36017  0.53837  0.29907  1.0000
  N   N15       1.0  0.39059  0.54171  0.24017  1.0000
  C   C35       1.0  0.41365  0.57428  0.22833  1.0000
  C   C36       1.0  0.44306  0.57269  0.16350  1.0000
  O   O7        1.0  0.44899  0.54218  0.12106  1.0000
  H   H15       1.0  0.44877  0.59755  0.12992  1.0000
  C   C37       1.0  0.59464  0.39100  0.29333  1.0000
  C   C38       1.0  0.64163  0.45997  0.29757  1.0000
  N   N16       1.0  0.61056  0.45558  0.24076  1.0000
  C   C39       1.0  0.58725  0.42291  0.23289  1.0000
  C   C40       1.0  0.55710  0.42345  0.16958  1.0000
  O   O8        1.0  0.55142  0.45338  0.12487  1.0000
  H   H16       1.0  0.55141  0.39819  0.13772  1.0000
  C   C41       1.0  0.61023  0.59540  0.28309  1.0000
  C   C42       1.0  0.54148  0.64146  0.29089  1.0000
  N   N17       1.0  0.54569  0.61083  0.23253  1.0000
  C   C43       1.0  0.57833  0.58806  0.22283  1.0000
  C   C44       1.0  0.57758  0.55813  0.15858  1.0000
  O   O9        1.0  0.54772  0.55223  0.11414  1.0000
  H   H17       1.0  0.60284  0.55314  0.12669  1.0000
  C   C45       1.0  0.39069  0.40274  0.29571  1.0000
  C   C46       1.0  0.45975  0.35724  0.30584  1.0000
  N   N18       1.0  0.45505  0.38667  0.24464  1.0000
  C   C47       1.0  0.42220  0.40904  0.23379  1.0000
  C   C48       1.0  0.42245  0.43763  0.16665  1.0000
  O   O10       1.0  0.45180  0.44300  0.12013  1.0000
  H   H18       1.0  0.39698  0.44295  0.13588  1.0000
  C   C49       1.0  0.12820  0.42438  0.34011  1.0000
  N   N19       1.0  0.09987  0.45300  0.33880  1.0000
  C   C50       1.0  0.06055  0.44371  0.33642  1.0000
  N   N20       1.0  0.05003  0.40449  0.33536  1.0000
  C   C51       1.0  0.07738  0.37498  0.33671  1.0000
  N   N21       1.0  0.11601  0.38593  0.33902  1.0000
  C   C52       1.0  0.87224  0.58039  0.33450  1.0000
  N   N22       1.0  0.90051  0.55190  0.33307  1.0000
  C   C53       1.0  0.93995  0.56035  0.33141  1.0000
  N   N23       1.0  0.95069  0.59958  0.33197  1.0000
  C   C54       1.0  0.92348  0.62937  0.33341  1.0000
  N   N24       1.0  0.88464  0.61878  0.33453  1.0000
  C   C55       1.0  0.57830  0.12727  0.34439  1.0000
  N   N25       1.0  0.54989  0.09851  0.34328  1.0000
  C   C56       1.0  0.55904  0.05912  0.34102  1.0000
  N   N26       1.0  0.59806  0.04883  0.33980  1.0000
  C   C57       1.0  0.62748  0.07658  0.34102  1.0000
  N   N27       1.0  0.61661  0.11538  0.34320  1.0000
  C   C58       1.0  0.42113  0.87032  0.33430  1.0000
  N   N28       1.0  0.44961  0.89883  0.33461  1.0000
  C   C59       1.0  0.44143  0.93837  0.33391  1.0000
  N   N29       1.0  0.40242  0.94894  0.33389  1.0000
  C   C60       1.0  0.37261  0.92142  0.33334  1.0000
  N   N30       1.0  0.38297  0.88249  0.33338  1.0000
  C   C61       1.0  0.99424  0.16029  0.36871  1.0000
  N   N31       1.0  0.00491  0.19887  0.35582  1.0000
  C   C62       1.0  0.04388  0.21001  0.35091  1.0000
  N   N32       1.0  0.07193  0.18106  0.35942  1.0000
  C   C63       1.0  0.06234  0.14233  0.37351  1.0000
  N   N33       1.0  0.02345  0.13332  0.37719  1.0000
  C   C64       1.0  0.00779  0.84444  0.36266  1.0000
  N   N34       1.0  0.99703  0.80580  0.35035  1.0000
  C   C65       1.0  0.95805  0.79451  0.34690  1.0000
  N   N35       1.0  0.93007  0.82347  0.35628  1.0000
  C   C66       1.0  0.93960  0.86227  0.36974  1.0000
  N   N36       1.0  0.97857  0.87143  0.37242  1.0000
  C   C67       1.0  0.84436  0.99816  0.36848  1.0000
  N   N37       1.0  0.80532  0.00676  0.35594  1.0000
  C   C68       1.0  0.79224  0.04532  0.35247  1.0000
  N   N38       1.0  0.81969  0.07498  0.36156  1.0000
  C   C69       1.0  0.85857  0.06761  0.37471  1.0000
  N   N39       1.0  0.86963  0.02921  0.37761  1.0000
  C   C70       1.0  0.15568  0.00572  0.36275  1.0000
  N   N40       1.0  0.19487  0.99900  0.35048  1.0000
  C   C71       1.0  0.20997  0.96140  0.34743  1.0000
  N   N41       1.0  0.18413  0.93007  0.35662  1.0000
  C   C72       1.0  0.14471  0.93573  0.36950  1.0000
  N   N42       1.0  0.13182  0.97364  0.37217  1.0000
  C   C73       1.0  0.50279  0.65619  0.30202  1.0000
  N   N43       1.0  0.49237  0.69474  0.31517  1.0000
  C   C74       1.0  0.45348  0.70579  0.32015  1.0000
  N   N44       1.0  0.42522  0.67687  0.31183  1.0000
  C   C75       1.0  0.43457  0.63826  0.29767  1.0000
  N   N45       1.0  0.47335  0.62913  0.29345  1.0000
  C   C76       1.0  0.49849  0.34249  0.31641  1.0000
  N   N46       1.0  0.50876  0.30393  0.32987  1.0000
  C   C77       1.0  0.54759  0.29255  0.33325  1.0000
  N   N47       1.0  0.57599  0.32126  0.32246  1.0000
  C   C78       1.0  0.56681  0.35995  0.30793  1.0000
  N   N48       1.0  0.52802  0.36930  0.30547  1.0000
  C   C79       1.0  0.65736  0.49880  0.30595  1.0000
  N   N49       1.0  0.69591  0.50909  0.31934  1.0000
  C   C80       1.0  0.70771  0.54814  0.32214  1.0000
  N   N50       1.0  0.67946  0.57668  0.31123  1.0000
  C   C81       1.0  0.64088  0.56750  0.29695  1.0000
  N   N51       1.0  0.63110  0.52858  0.29509  1.0000
  C   C82       1.0  0.34448  0.49990  0.31154  1.0000
  N   N52       1.0  0.30581  0.49040  0.32473  1.0000
  C   C83       1.0  0.29350  0.45166  0.33034  1.0000
  N   N53       1.0  0.32138  0.42251  0.32223  1.0000
  C   C84       1.0  0.36019  0.43099  0.30816  1.0000
  N   N54       1.0  0.37046  0.46974  0.30342  1.0000
  N   N55       1.0  0.00758  0.54032  0.33998  1.0000
  C   C85       1.0  0.03844  0.51464  0.34209  1.0000
  H   H19       1.0  0.06648  0.52559  0.34974  1.0000
  N   N56       1.0  0.46221  0.00620  0.34398  1.0000
  C   C86       1.0  0.48820  0.03708  0.34664  1.0000
  H   H20       1.0  0.47765  0.06528  0.35462  1.0000
  C   C87       1.0  0.05435  0.25108  0.34400  1.0000
  C   C88       1.0  0.06785  0.33392  0.33721  1.0000
  N   N57       1.0  0.09772  0.30716  0.34251  1.0000
  C   C89       1.0  0.09348  0.26698  0.34547  1.0000
  C   C90       1.0  0.12749  0.24481  0.35417  1.0000
  O   O11       1.0  0.15827  0.25675  0.32029  1.0000
  H   H21       1.0  0.13107  0.23120  0.41274  1.0000
  C   C91       1.0  0.94742  0.75337  0.34068  1.0000
  C   C92       1.0  0.93336  0.67045  0.33452  1.0000
  N   N58       1.0  0.90372  0.69744  0.34030  1.0000
  C   C93       1.0  0.90821  0.73763  0.34300  1.0000
  C   C94       1.0  0.87442  0.76012  0.35241  1.0000
  O   O12       1.0  0.84403  0.74831  0.31643  1.0000
  H   H22       1.0  0.87037  0.77234  0.41222  1.0000
  C   C95       1.0  0.75107  0.05475  0.34646  1.0000
  C   C96       1.0  0.66839  0.06720  0.34112  1.0000
  N   N59       1.0  0.69489  0.09750  0.34672  1.0000
  C   C97       1.0  0.73488  0.09382  0.34886  1.0000
  C   C98       1.0  0.75650  0.12851  0.35853  1.0000
  O   O13       1.0  0.74526  0.15825  0.31915  1.0000
  H   H23       1.0  0.76681  0.13318  0.42000  1.0000
  C   C99       1.0  0.25157  0.95442  0.34130  1.0000
  C   C100      1.0  0.33194  0.93185  0.33388  1.0000
  N   N60       1.0  0.32075  0.97038  0.34269  1.0000
  C   C101      1.0  0.28255  0.98332  0.34619  1.0000
  C   C102      1.0  0.27646  0.02341  0.35954  1.0000
  O   O14       1.0  0.30136  0.04743  0.33447  1.0000
  H   H24       1.0  0.26298  0.03082  0.41629  1.0000
  N   N61       1.0  0.47322  0.77363  0.33304  1.0000
  C   C103      1.0  0.46853  0.81361  0.33681  1.0000
  H   H25       1.0  0.49295  0.83153  0.34107  1.0000
  N   N62       1.0  0.52708  0.22466  0.34405  1.0000
  C   C104      1.0  0.53134  0.18457  0.34701  1.0000
  H   H26       1.0  0.50672  0.16685  0.34937  1.0000
  N   N63       1.0  0.77525  0.52804  0.33239  1.0000
  C   C105      1.0  0.81515  0.53272  0.33552  1.0000
  H   H27       1.0  0.83275  0.50813  0.33747  1.0000
  N   N64       1.0  0.22662  0.47388  0.34038  1.0000
  C   C106      1.0  0.18658  0.47055  0.34304  1.0000
  H   H28       1.0  0.16970  0.49564  0.34522  1.0000
  C   C107      1.0  0.08971  0.11081  0.38437  1.0000
  C   C108      1.0  0.13770  0.04324  0.37256  1.0000
  N   N65       1.0  0.10515  0.04462  0.42551  1.0000
  C   C109      1.0  0.08113  0.07631  0.43644  1.0000
  C   C110      1.0  0.04987  0.07242  0.49612  1.0000
  O   O15       1.0  0.04158  0.04020  0.52935  1.0000
  H   H29       1.0  0.04412  0.09564  0.53503  1.0000
  C   C111      1.0  0.91175  0.89335  0.38236  1.0000
  C   C112      1.0  0.86204  0.96022  0.37724  1.0000
  N   N66       1.0  0.89491  0.95839  0.42937  1.0000
  C   C113      1.0  0.91973  0.92711  0.43723  1.0000
  C   C114      1.0  0.95136  0.93058  0.49617  1.0000
  O   O16       1.0  0.95869  0.96257  0.53168  1.0000
  H   H30       1.0  0.95737  0.90707  0.53379  1.0000
  C   C115      1.0  0.88802  0.09701  0.38810  1.0000
  C   C116      1.0  0.95558  0.14533  0.38049  1.0000
  N   N67       1.0  0.95122  0.11589  0.44199  1.0000
  C   C117      1.0  0.91900  0.09222  0.45183  1.0000
  C   C118      1.0  0.91945  0.06357  0.51900  1.0000
  O   O17       1.0  0.94814  0.06064  0.56847  1.0000
  H   H31       1.0  0.89362  0.05741  0.54756  1.0000
  C   C119      1.0  0.11566  0.90570  0.38302  1.0000
  C   C120      1.0  0.04674  0.85908  0.37336  1.0000
  N   N68       1.0  0.05223  0.88714  0.43758  1.0000
  C   C121      1.0  0.08517  0.90981  0.44835  1.0000
  C   C122      1.0  0.08574  0.93721  0.51798  1.0000
  O   O18       1.0  0.05775  0.93999  0.56954  1.0000
  H   H32       1.0  0.11184  0.94364  0.54504  1.0000
  N   N69       1.0  0.37564  0.60447  0.34457  1.0000
  C   C123      1.0  0.35124  0.57222  0.35073  1.0000
  H   H33       1.0  0.32987  0.57139  0.39924  1.0000
  N   N70       1.0  0.62636  0.39461  0.34952  1.0000
  C   C124      1.0  0.65083  0.42697  0.35182  1.0000
  H   H34       1.0  0.67276  0.42853  0.39893  1.0000
  N   N71       1.0  0.60669  0.62658  0.34108  1.0000
  C   C125      1.0  0.57442  0.65068  0.34508  1.0000
  H   H35       1.0  0.57285  0.67211  0.39356  1.0000
  N   N72       1.0  0.39473  0.37268  0.35649  1.0000
  C   C126      1.0  0.42708  0.34871  0.36152  1.0000
  H   H36       1.0  0.42912  0.32833  0.41215  1.0000
