data_image0
_chemical_formula_structural       C3NCONCNCHOHC3NCONCNCHOHC2NCOHC2HC2NCOHC2HO2HCN2CNCHO2HCN2CNCHC4NC2NOHCOC4NC2NOHCOC2H2OC3H2OCO2HC2H2OCO2HCNC2NCNCNCNCNCNC2H2OHC2H2OHC4NC2NHC4NC2NHC3NC2NC4NC2NOHCOC4NC2NOHCOC2H2OC3H2OCO2HC2H2OCO2HCNC2NCNCNCNCNCNC2H2OHC2H2OHC4NC2NHC4NC2NHC3NC2NC4NC2NOHCOC4NC2NOHCOC4NC2NOHCOC2H2OCO2HC2H2OCO2HC2H2OCO2HCNCNCNCNCNCNCNCNCNCNCNCNC2H2OHC2H2OHC2H2OHC4NC2NHC4NC2NHC4NC2NHC4NC2NOHCOC4NC2NOHCOC4NC2NOHCOC2H2OCO2HC2H2OCO2HC2H2OCO2HCNCNCNCNCNCNCNCNCNCNCNCNC2H2OHC2H2OHC2H2OHC4NC2NHC4NC2NHC4NC2NH
_chemical_formula_sum              "C264 N96 O72 H96"
_cell_length_a       45.059
_cell_length_b       45.0635
_cell_length_c       14.8289
_cell_angle_alpha    90
_cell_angle_beta     90
_cell_angle_gamma    120.01

_space_group_name_H-M_alt    "P 1"
_space_group_IT_number       1

loop_
  _space_group_symop_operation_xyz
  'x, y, z'

loop_
  _atom_site_type_symbol
  _atom_site_label
  _atom_site_symmetry_multiplicity
  _atom_site_fract_x
  _atom_site_fract_y
  _atom_site_fract_z
  _atom_site_occupancy
  C   C1        1.0  0.07784  0.03934  0.33948  1.0000
  C   C2        1.0  0.09673  0.05039  0.25798  1.0000
  C   C3        1.0  0.09589  0.05259  0.09651  1.0000
  N   N1        1.0  0.08001  0.04340  0.17777  1.0000
  C   C4        1.0  0.07652  0.04420  0.01842  1.0000
  O   O1        1.0  0.05064  0.01605  0.01434  1.0000
  N   N2        1.0  0.02393  0.03917  0.34076  1.0000
  C   C5        1.0  0.04127  0.02156  0.34110  1.0000
  N   N3        1.0  0.02285  0.48663  0.34081  1.0000
  C   C6        1.0  0.09653  0.04652  0.42073  1.0000
  H   H1        1.0  0.08379  0.03864  0.48086  1.0000
  O   O2        1.0  0.07575  0.06664  0.63879  1.0000
  H   H2        1.0  0.09143  0.08872  0.63968  1.0000
  C   C7        1.0  0.07784  0.53934  0.33948  1.0000
  C   C8        1.0  0.09673  0.55039  0.25798  1.0000
  C   C9        1.0  0.09589  0.55259  0.09651  1.0000
  N   N4        1.0  0.08001  0.54340  0.17777  1.0000
  C   C10       1.0  0.07652  0.54420  0.01842  1.0000
  O   O3        1.0  0.05064  0.51605  0.01434  1.0000
  N   N5        1.0  0.02393  0.53917  0.34076  1.0000
  C   C11       1.0  0.04127  0.52156  0.34110  1.0000
  N   N6        1.0  0.02285  0.98663  0.34081  1.0000
  C   C12       1.0  0.09653  0.54652  0.42073  1.0000
  H   H3        1.0  0.08379  0.53864  0.48086  1.0000
  O   O4        1.0  0.07575  0.56664  0.63879  1.0000
  H   H4        1.0  0.09143  0.58872  0.63968  1.0000
  C   C13       1.0  0.13339  0.06857  0.25718  1.0000
  C   C14       1.0  0.15171  0.07598  0.34015  1.0000
  N   N7        1.0  0.14941  0.07792  0.17497  1.0000
  C   C15       1.0  0.13203  0.07058  0.09550  1.0000
  O   O5        1.0  0.14974  0.08022  0.01690  1.0000
  H   H5        1.0  0.17434  0.09019  0.17160  1.0000
  C   C16       1.0  0.18823  0.09442  0.34436  1.0000
  C   C17       1.0  0.13269  0.06453  0.42114  1.0000
  H   H6        1.0  0.14516  0.06936  0.48181  1.0000
  C   C18       1.0  0.13339  0.56857  0.25718  1.0000
  C   C19       1.0  0.15171  0.57598  0.34015  1.0000
  N   N8        1.0  0.14941  0.57792  0.17497  1.0000
  C   C20       1.0  0.13203  0.57058  0.09550  1.0000
  O   O6        1.0  0.14973  0.58022  0.01690  1.0000
  H   H7        1.0  0.17434  0.59019  0.17160  1.0000
  C   C21       1.0  0.18823  0.59442  0.34436  1.0000
  C   C22       1.0  0.13269  0.56453  0.42114  1.0000
  H   H8        1.0  0.14516  0.56936  0.48181  1.0000
  O   O7        1.0  0.25385  0.10818  0.00383  1.0000
  O   O8        1.0  0.24546  0.06082  0.04553  1.0000
  H   H9        1.0  0.24855  0.04287  0.04783  1.0000
  C   C23       1.0  0.24068  0.14735  0.34777  1.0000
  N   N9        1.0  0.20575  0.12949  0.34532  1.0000
  N   N10       1.0  0.20628  0.07740  0.34510  1.0000
  C   C24       1.0  0.24122  0.09503  0.34707  1.0000
  N   N11       1.0  0.25759  0.12964  0.34901  1.0000
  C   C25       1.0  0.26192  0.18347  0.35120  1.0000
  H   H10       1.0  0.24437  0.16297  0.52050  1.0000
  O   O9        1.0  0.25385  0.60818  0.00383  1.0000
  O   O10       1.0  0.24546  0.56082  0.04553  1.0000
  H   H11       1.0  0.24855  0.54287  0.04783  1.0000
  C   C26       1.0  0.24067  0.64734  0.34777  1.0000
  N   N12       1.0  0.20575  0.62949  0.34532  1.0000
  N   N13       1.0  0.20628  0.57740  0.34510  1.0000
  C   C27       1.0  0.24122  0.59503  0.34707  1.0000
  N   N14       1.0  0.25759  0.62964  0.34901  1.0000
  C   C28       1.0  0.26192  0.68347  0.35120  1.0000
  H   H12       1.0  0.24437  0.66297  0.52050  1.0000
  C   C29       1.0  0.47121  0.04144  0.33945  1.0000
  C   C30       1.0  0.46021  0.04932  0.25794  1.0000
  C   C31       1.0  0.44203  0.06779  0.25714  1.0000
  C   C32       1.0  0.43458  0.07865  0.34012  1.0000
  N   N15       1.0  0.43271  0.07448  0.17492  1.0000
  C   C33       1.0  0.44008  0.06449  0.09546  1.0000
  C   C34       1.0  0.45809  0.04636  0.09645  1.0000
  N   N16       1.0  0.46722  0.03962  0.17773  1.0000
  O   O11       1.0  0.43043  0.07253  0.01686  1.0000
  H   H13       1.0  0.42044  0.08714  0.17156  1.0000
  C   C35       1.0  0.46641  0.03536  0.01822  1.0000
  O   O12       1.0  0.49469  0.03789  0.01477  1.0000
  C   C36       1.0  0.46910  0.43272  0.33950  1.0000
  C   C37       1.0  0.46123  0.41384  0.25798  1.0000
  C   C38       1.0  0.44276  0.37718  0.25718  1.0000
  C   C39       1.0  0.43189  0.35886  0.34016  1.0000
  N   N17       1.0  0.43606  0.36117  0.17496  1.0000
  C   C40       1.0  0.44607  0.37854  0.09550  1.0000
  C   C41       1.0  0.46421  0.41469  0.09651  1.0000
  N   N18       1.0  0.47093  0.43056  0.17779  1.0000
  O   O13       1.0  0.43799  0.36085  0.01689  1.0000
  H   H14       1.0  0.42340  0.33624  0.17158  1.0000
  C   C42       1.0  0.47520  0.43406  0.01843  1.0000
  O   O14       1.0  0.47291  0.45993  0.01438  1.0000
  C   C43       1.0  0.31041  0.08017  0.26963  1.0000
  C   C44       1.0  0.27910  0.08003  0.26910  1.0000
  H   H15       1.0  0.27022  0.08354  0.20884  1.0000
  H   H16       1.0  0.32281  0.08339  0.20932  1.0000
  O   O15       1.0  0.32760  0.08828  0.00806  1.0000
  C   C45       1.0  0.26397  0.08758  0.00389  1.0000
  C   C46       1.0  0.43045  0.23328  0.26972  1.0000
  C   C47       1.0  0.43042  0.20203  0.26904  1.0000
  H   H17       1.0  0.42686  0.18970  0.20868  1.0000
  H   H18       1.0  0.42708  0.24240  0.20952  1.0000
  O   O16       1.0  0.42233  0.24204  0.00817  1.0000
  C   C48       1.0  0.42301  0.17907  0.00345  1.0000
  O   O17       1.0  0.40295  0.14822  0.00381  1.0000
  O   O18       1.0  0.44973  0.18781  0.04601  1.0000
  H   H19       1.0  0.46746  0.20898  0.04862  1.0000
  C   C49       1.0  0.27735  0.20016  0.26934  1.0000
  C   C50       1.0  0.30855  0.23144  0.26873  1.0000
  H   H20       1.0  0.32088  0.24031  0.20842  1.0000
  H   H21       1.0  0.26810  0.18771  0.20913  1.0000
  O   O19       1.0  0.26849  0.18303  0.00790  1.0000
  C   C51       1.0  0.33149  0.24668  0.00336  1.0000
  O   O20       1.0  0.36231  0.25732  0.00397  1.0000
  O   O21       1.0  0.32286  0.26484  0.04549  1.0000
  H   H22       1.0  0.30173  0.26151  0.04791  1.0000
  C   C52       1.0  0.48789  0.46928  0.34112  1.0000
  N   N19       1.0  0.47138  0.48770  0.34078  1.0000
  C   C53       1.0  0.48899  0.02266  0.34107  1.0000
  C   C54       1.0  0.36319  0.09621  0.34771  1.0000
  N   N20       1.0  0.38106  0.07915  0.34537  1.0000
  C   C55       1.0  0.41613  0.09671  0.34431  1.0000
  N   N21       1.0  0.43314  0.13179  0.34491  1.0000
  C   C56       1.0  0.41550  0.14909  0.34678  1.0000
  N   N22       1.0  0.38089  0.13083  0.34882  1.0000
  C   C57       1.0  0.41437  0.26994  0.34796  1.0000
  N   N23       1.0  0.43142  0.30487  0.34553  1.0000
  C   C58       1.0  0.41384  0.32235  0.34436  1.0000
  N   N24       1.0  0.37876  0.30426  0.34489  1.0000
  C   C59       1.0  0.36147  0.26932  0.34696  1.0000
  N   N25       1.0  0.37975  0.25299  0.34903  1.0000
  C   C60       1.0  0.44597  0.07103  0.42112  1.0000
  C   C61       1.0  0.46398  0.05289  0.42071  1.0000
  H   H23       1.0  0.47181  0.04798  0.48086  1.0000
  H   H24       1.0  0.44110  0.07863  0.48180  1.0000
  O   O22       1.0  0.44404  0.01190  0.63921  1.0000
  H   H25       1.0  0.42193  0.00540  0.64007  1.0000
  C   C62       1.0  0.43950  0.37788  0.42116  1.0000
  C   C63       1.0  0.45764  0.41403  0.42075  1.0000
  H   H26       1.0  0.46254  0.42677  0.48090  1.0000
  H   H27       1.0  0.43190  0.36540  0.48184  1.0000
  O   O23       1.0  0.49844  0.43488  0.63889  1.0000
  H   H28       1.0  0.50486  0.41921  0.63976  1.0000
  C   C64       1.0  0.26305  0.08080  0.35011  1.0000
  C   C65       1.0  0.27932  0.08129  0.43224  1.0000
  C   C66       1.0  0.31110  0.08152  0.43411  1.0000
  C   C67       1.0  0.32707  0.08130  0.35143  1.0000
  N   N26       1.0  0.32601  0.08422  0.51666  1.0000
  C   C68       1.0  0.31167  0.08623  0.59556  1.0000
  C   C69       1.0  0.28050  0.08641  0.59323  1.0000
  N   N27       1.0  0.26588  0.08399  0.51170  1.0000
  H   H29       1.0  0.34760  0.08422  0.52059  1.0000
  C   C70       1.0  0.42972  0.18513  0.34984  1.0000
  C   C71       1.0  0.42931  0.20092  0.43205  1.0000
  C   C72       1.0  0.42909  0.23247  0.43414  1.0000
  C   C73       1.0  0.42929  0.24875  0.35163  1.0000
  N   N28       1.0  0.42641  0.24463  0.51678  1.0000
  C   C74       1.0  0.42441  0.22823  0.59558  1.0000
  C   C75       1.0  0.42424  0.19689  0.59304  1.0000
  N   N29       1.0  0.42661  0.18473  0.51143  1.0000
  H   H30       1.0  0.42637  0.26620  0.52085  1.0000
  C   C76       1.0  0.32541  0.24745  0.34967  1.0000
  C   C77       1.0  0.30970  0.23122  0.43193  1.0000
  C   C78       1.0  0.27815  0.19944  0.43389  1.0000
  N   N30       1.0  0.26597  0.18456  0.51649  1.0000
  C   C79       1.0  0.28234  0.19893  0.59534  1.0000
  C   C80       1.0  0.31371  0.23010  0.59291  1.0000
  N   N31       1.0  0.32588  0.24468  0.51136  1.0000
  C   C81       1.0  0.47121  0.54144  0.33945  1.0000
  C   C82       1.0  0.46021  0.54932  0.25794  1.0000
  C   C83       1.0  0.44203  0.56779  0.25714  1.0000
  C   C84       1.0  0.43458  0.57865  0.34012  1.0000
  N   N32       1.0  0.43271  0.57448  0.17492  1.0000
  C   C85       1.0  0.44008  0.56449  0.09546  1.0000
  C   C86       1.0  0.45809  0.54636  0.09645  1.0000
  N   N33       1.0  0.46722  0.53962  0.17773  1.0000
  O   O24       1.0  0.43043  0.57253  0.01686  1.0000
  H   H31       1.0  0.42044  0.58714  0.17156  1.0000
  C   C87       1.0  0.46641  0.53536  0.01823  1.0000
  O   O25       1.0  0.49469  0.53789  0.01477  1.0000
  C   C88       1.0  0.46910  0.93272  0.33950  1.0000
  C   C89       1.0  0.46123  0.91384  0.25798  1.0000
  C   C90       1.0  0.44276  0.87718  0.25718  1.0000
  C   C91       1.0  0.43189  0.85886  0.34016  1.0000
  N   N34       1.0  0.43606  0.86117  0.17496  1.0000
  C   C92       1.0  0.44607  0.87854  0.09550  1.0000
  C   C93       1.0  0.46421  0.91469  0.09651  1.0000
  N   N35       1.0  0.47093  0.93056  0.17779  1.0000
  O   O26       1.0  0.43799  0.86085  0.01689  1.0000
  H   H32       1.0  0.42340  0.83623  0.17158  1.0000
  C   C94       1.0  0.47519  0.93406  0.01843  1.0000
  O   O27       1.0  0.47291  0.95993  0.01438  1.0000
  C   C95       1.0  0.31040  0.58017  0.26963  1.0000
  C   C96       1.0  0.27910  0.58003  0.26910  1.0000
  H   H33       1.0  0.27022  0.58354  0.20884  1.0000
  H   H34       1.0  0.32281  0.58339  0.20932  1.0000
  O   O28       1.0  0.32760  0.58828  0.00806  1.0000
  C   C97       1.0  0.26397  0.58758  0.00389  1.0000
  C   C98       1.0  0.43045  0.73328  0.26972  1.0000
  C   C99       1.0  0.43042  0.70203  0.26904  1.0000
  H   H35       1.0  0.42686  0.68970  0.20868  1.0000
  H   H36       1.0  0.42708  0.74240  0.20952  1.0000
  O   O29       1.0  0.42233  0.74204  0.00817  1.0000
  C   C100      1.0  0.42301  0.67907  0.00345  1.0000
  O   O30       1.0  0.40295  0.64822  0.00381  1.0000
  O   O31       1.0  0.44973  0.68781  0.04601  1.0000
  H   H37       1.0  0.46746  0.70898  0.04862  1.0000
  C   C101      1.0  0.27735  0.70016  0.26934  1.0000
  C   C102      1.0  0.30855  0.73143  0.26873  1.0000
  H   H38       1.0  0.32088  0.74031  0.20842  1.0000
  H   H39       1.0  0.26810  0.68771  0.20913  1.0000
  O   O32       1.0  0.26849  0.68303  0.00790  1.0000
  C   C103      1.0  0.33149  0.74668  0.00336  1.0000
  O   O33       1.0  0.36231  0.75731  0.00397  1.0000
  O   O34       1.0  0.32286  0.76484  0.04549  1.0000
  H   H40       1.0  0.30173  0.76151  0.04791  1.0000
  C   C104      1.0  0.48789  0.96928  0.34112  1.0000
  N   N36       1.0  0.47138  0.98770  0.34078  1.0000
  C   C105      1.0  0.48899  0.52265  0.34107  1.0000
  C   C106      1.0  0.36319  0.59621  0.34771  1.0000
  N   N37       1.0  0.38105  0.57915  0.34537  1.0000
  C   C107      1.0  0.41613  0.59671  0.34431  1.0000
  N   N38       1.0  0.43314  0.63179  0.34491  1.0000
  C   C108      1.0  0.41550  0.64909  0.34678  1.0000
  N   N39       1.0  0.38089  0.63083  0.34882  1.0000
  C   C109      1.0  0.41437  0.76994  0.34796  1.0000
  N   N40       1.0  0.43142  0.80487  0.34553  1.0000
  C   C110      1.0  0.41384  0.82235  0.34436  1.0000
  N   N41       1.0  0.37876  0.80426  0.34489  1.0000
  C   C111      1.0  0.36147  0.76932  0.34696  1.0000
  N   N42       1.0  0.37974  0.75299  0.34903  1.0000
  C   C112      1.0  0.44597  0.57103  0.42112  1.0000
  C   C113      1.0  0.46398  0.55289  0.42071  1.0000
  H   H41       1.0  0.47181  0.54798  0.48086  1.0000
  H   H42       1.0  0.44110  0.57863  0.48180  1.0000
  O   O35       1.0  0.44404  0.51190  0.63921  1.0000
  H   H43       1.0  0.42193  0.50540  0.64007  1.0000
  C   C114      1.0  0.43950  0.87787  0.42116  1.0000
  C   C115      1.0  0.45764  0.91403  0.42075  1.0000
  H   H44       1.0  0.46254  0.92677  0.48090  1.0000
  H   H45       1.0  0.43190  0.86540  0.48184  1.0000
  O   O36       1.0  0.49844  0.93488  0.63889  1.0000
  H   H46       1.0  0.50486  0.91921  0.63976  1.0000
  C   C116      1.0  0.26304  0.58080  0.35011  1.0000
  C   C117      1.0  0.27932  0.58129  0.43224  1.0000
  C   C118      1.0  0.31110  0.58152  0.43411  1.0000
  C   C119      1.0  0.32707  0.58130  0.35143  1.0000
  N   N43       1.0  0.32601  0.58422  0.51666  1.0000
  C   C120      1.0  0.31167  0.58623  0.59556  1.0000
  C   C121      1.0  0.28050  0.58641  0.59323  1.0000
  N   N44       1.0  0.26588  0.58399  0.51170  1.0000
  H   H47       1.0  0.34760  0.58422  0.52059  1.0000
  C   C122      1.0  0.42972  0.68513  0.34984  1.0000
  C   C123      1.0  0.42931  0.70092  0.43205  1.0000
  C   C124      1.0  0.42908  0.73247  0.43414  1.0000
  C   C125      1.0  0.42929  0.74875  0.35163  1.0000
  N   N45       1.0  0.42641  0.74463  0.51678  1.0000
  C   C126      1.0  0.42441  0.72823  0.59558  1.0000
  C   C127      1.0  0.42424  0.69689  0.59304  1.0000
  N   N46       1.0  0.42661  0.68473  0.51143  1.0000
  H   H48       1.0  0.42637  0.76620  0.52085  1.0000
  C   C128      1.0  0.32541  0.74745  0.34967  1.0000
  C   C129      1.0  0.30970  0.73122  0.43193  1.0000
  C   C130      1.0  0.27815  0.69944  0.43389  1.0000
  N   N47       1.0  0.26597  0.68456  0.51649  1.0000
  C   C131      1.0  0.28234  0.69893  0.59534  1.0000
  C   C132      1.0  0.31371  0.73010  0.59291  1.0000
  N   N48       1.0  0.32588  0.74468  0.51136  1.0000
  C   C133      1.0  0.57784  0.03934  0.33948  1.0000
  C   C134      1.0  0.59672  0.05039  0.25798  1.0000
  C   C135      1.0  0.63339  0.06857  0.25718  1.0000
  C   C136      1.0  0.65171  0.07598  0.34015  1.0000
  N   N49       1.0  0.64941  0.07792  0.17497  1.0000
  C   C137      1.0  0.63203  0.07058  0.09550  1.0000
  C   C138      1.0  0.59589  0.05259  0.09651  1.0000
  N   N50       1.0  0.58001  0.04340  0.17777  1.0000
  O   O37       1.0  0.64973  0.08022  0.01690  1.0000
  H   H49       1.0  0.67434  0.09019  0.17160  1.0000
  C   C139      1.0  0.57652  0.04420  0.01842  1.0000
  O   O38       1.0  0.55064  0.01605  0.01434  1.0000
  C   C140      1.0  0.97122  0.04144  0.33945  1.0000
  C   C141      1.0  0.96021  0.04932  0.25794  1.0000
  C   C142      1.0  0.94203  0.06779  0.25714  1.0000
  C   C143      1.0  0.93458  0.07865  0.34012  1.0000
  N   N51       1.0  0.93271  0.07448  0.17492  1.0000
  C   C144      1.0  0.94008  0.06449  0.09546  1.0000
  C   C145      1.0  0.95809  0.04636  0.09645  1.0000
  N   N52       1.0  0.96722  0.03962  0.17773  1.0000
  O   O39       1.0  0.93043  0.07253  0.01686  1.0000
  H   H50       1.0  0.92044  0.08714  0.17156  1.0000
  C   C146      1.0  0.96641  0.03536  0.01822  1.0000
  O   O40       1.0  0.99469  0.03789  0.01477  1.0000
  C   C147      1.0  0.96910  0.43272  0.33950  1.0000
  C   C148      1.0  0.96123  0.41384  0.25798  1.0000
  C   C149      1.0  0.94276  0.37718  0.25718  1.0000
  C   C150      1.0  0.93189  0.35886  0.34016  1.0000
  N   N53       1.0  0.93606  0.36117  0.17496  1.0000
  C   C151      1.0  0.94607  0.37854  0.09550  1.0000
  C   C152      1.0  0.96421  0.41469  0.09651  1.0000
  N   N54       1.0  0.97093  0.43056  0.17779  1.0000
  O   O41       1.0  0.93799  0.36085  0.01689  1.0000
  H   H51       1.0  0.92340  0.33624  0.17158  1.0000
  C   C153      1.0  0.97520  0.43406  0.01843  1.0000
  O   O42       1.0  0.97291  0.45993  0.01438  1.0000
  C   C154      1.0  0.81041  0.08017  0.26963  1.0000
  C   C155      1.0  0.77910  0.08003  0.26910  1.0000
  H   H52       1.0  0.77022  0.08354  0.20884  1.0000
  H   H53       1.0  0.82281  0.08339  0.20932  1.0000
  O   O43       1.0  0.82761  0.08828  0.00806  1.0000
  C   C156      1.0  0.76397  0.08758  0.00389  1.0000
  O   O44       1.0  0.75385  0.10818  0.00383  1.0000
  O   O45       1.0  0.74546  0.06082  0.04553  1.0000
  H   H54       1.0  0.74855  0.04287  0.04783  1.0000
  C   C157      1.0  0.93045  0.23328  0.26972  1.0000
  C   C158      1.0  0.93042  0.20203  0.26904  1.0000
  H   H55       1.0  0.92686  0.18970  0.20868  1.0000
  H   H56       1.0  0.92708  0.24240  0.20952  1.0000
  O   O46       1.0  0.92233  0.24204  0.00817  1.0000
  C   C159      1.0  0.92301  0.17907  0.00345  1.0000
  O   O47       1.0  0.90295  0.14822  0.00381  1.0000
  O   O48       1.0  0.94973  0.18781  0.04601  1.0000
  H   H57       1.0  0.96746  0.20898  0.04862  1.0000
  C   C160      1.0  0.77735  0.20016  0.26934  1.0000
  C   C161      1.0  0.80854  0.23144  0.26873  1.0000
  H   H58       1.0  0.82088  0.24031  0.20842  1.0000
  H   H59       1.0  0.76810  0.18771  0.20913  1.0000
  O   O49       1.0  0.76849  0.18303  0.00790  1.0000
  C   C162      1.0  0.83149  0.24668  0.00336  1.0000
  O   O50       1.0  0.86231  0.25732  0.00397  1.0000
  O   O51       1.0  0.82286  0.26484  0.04549  1.0000
  H   H60       1.0  0.80173  0.26151  0.04791  1.0000
  C   C163      1.0  0.98789  0.46928  0.34112  1.0000
  N   N55       1.0  0.97138  0.48770  0.34078  1.0000
  C   C164      1.0  0.98899  0.02266  0.34107  1.0000
  N   N56       1.0  0.52393  0.03917  0.34076  1.0000
  C   C165      1.0  0.54127  0.02156  0.34110  1.0000
  N   N57       1.0  0.52285  0.48663  0.34081  1.0000
  C   C166      1.0  0.74067  0.14735  0.34777  1.0000
  N   N58       1.0  0.70575  0.12949  0.34532  1.0000
  C   C167      1.0  0.68823  0.09442  0.34436  1.0000
  N   N59       1.0  0.70628  0.07740  0.34510  1.0000
  C   C168      1.0  0.74122  0.09503  0.34707  1.0000
  N   N60       1.0  0.75759  0.12964  0.34901  1.0000
  C   C169      1.0  0.86319  0.09621  0.34771  1.0000
  N   N61       1.0  0.88106  0.07915  0.34537  1.0000
  C   C170      1.0  0.91613  0.09671  0.34431  1.0000
  N   N62       1.0  0.93314  0.13179  0.34491  1.0000
  C   C171      1.0  0.91550  0.14909  0.34678  1.0000
  N   N63       1.0  0.88089  0.13083  0.34882  1.0000
  C   C172      1.0  0.91437  0.26994  0.34796  1.0000
  N   N64       1.0  0.93142  0.30487  0.34553  1.0000
  C   C173      1.0  0.91384  0.32235  0.34436  1.0000
  N   N65       1.0  0.87876  0.30426  0.34489  1.0000
  C   C174      1.0  0.86147  0.26932  0.34696  1.0000
  N   N66       1.0  0.87975  0.25299  0.34903  1.0000
  C   C175      1.0  0.63269  0.06453  0.42114  1.0000
  C   C176      1.0  0.59653  0.04652  0.42073  1.0000
  H   H61       1.0  0.58378  0.03864  0.48086  1.0000
  H   H62       1.0  0.64516  0.06936  0.48181  1.0000
  O   O52       1.0  0.57575  0.06664  0.63879  1.0000
  H   H63       1.0  0.59143  0.08872  0.63968  1.0000
  C   C177      1.0  0.94597  0.07103  0.42112  1.0000
  C   C178      1.0  0.96398  0.05289  0.42071  1.0000
  H   H64       1.0  0.97181  0.04798  0.48086  1.0000
  H   H65       1.0  0.94110  0.07863  0.48180  1.0000
  O   O53       1.0  0.94404  0.01190  0.63921  1.0000
  H   H66       1.0  0.92193  0.00540  0.64007  1.0000
  C   C179      1.0  0.93950  0.37788  0.42116  1.0000
  C   C180      1.0  0.95764  0.41403  0.42075  1.0000
  H   H67       1.0  0.96254  0.42677  0.48090  1.0000
  H   H68       1.0  0.93190  0.36540  0.48184  1.0000
  O   O54       1.0  0.99844  0.43488  0.63889  1.0000
  H   H69       1.0  0.00486  0.41921  0.63976  1.0000
  C   C181      1.0  0.76304  0.08080  0.35011  1.0000
  C   C182      1.0  0.77932  0.08129  0.43224  1.0000
  C   C183      1.0  0.81110  0.08152  0.43411  1.0000
  C   C184      1.0  0.82707  0.08130  0.35143  1.0000
  N   N67       1.0  0.82601  0.08422  0.51666  1.0000
  C   C185      1.0  0.81167  0.08623  0.59556  1.0000
  C   C186      1.0  0.78050  0.08641  0.59323  1.0000
  N   N68       1.0  0.76588  0.08399  0.51170  1.0000
  H   H70       1.0  0.84760  0.08422  0.52059  1.0000
  C   C187      1.0  0.92972  0.18513  0.34984  1.0000
  C   C188      1.0  0.92931  0.20092  0.43205  1.0000
  C   C189      1.0  0.92908  0.23247  0.43414  1.0000
  C   C190      1.0  0.92929  0.24875  0.35163  1.0000
  N   N69       1.0  0.92641  0.24463  0.51678  1.0000
  C   C191      1.0  0.92441  0.22823  0.59558  1.0000
  C   C192      1.0  0.92424  0.19689  0.59304  1.0000
  N   N70       1.0  0.92661  0.18473  0.51143  1.0000
  H   H71       1.0  0.92637  0.26620  0.52085  1.0000
  C   C193      1.0  0.82541  0.24745  0.34967  1.0000
  C   C194      1.0  0.80970  0.23122  0.43193  1.0000
  C   C195      1.0  0.77815  0.19944  0.43389  1.0000
  C   C196      1.0  0.76192  0.18347  0.35120  1.0000
  N   N71       1.0  0.76597  0.18456  0.51649  1.0000
  C   C197      1.0  0.78234  0.19893  0.59534  1.0000
  C   C198      1.0  0.81370  0.23010  0.59291  1.0000
  N   N72       1.0  0.82588  0.24468  0.51136  1.0000
  H   H72       1.0  0.74437  0.16297  0.52050  1.0000
  C   C199      1.0  0.57784  0.53934  0.33948  1.0000
  C   C200      1.0  0.59672  0.55039  0.25798  1.0000
  C   C201      1.0  0.63339  0.56857  0.25718  1.0000
  C   C202      1.0  0.65171  0.57598  0.34015  1.0000
  N   N73       1.0  0.64941  0.57792  0.17497  1.0000
  C   C203      1.0  0.63203  0.57058  0.09550  1.0000
  C   C204      1.0  0.59589  0.55259  0.09651  1.0000
  N   N74       1.0  0.58001  0.54340  0.17777  1.0000
  O   O55       1.0  0.64973  0.58022  0.01690  1.0000
  H   H73       1.0  0.67434  0.59019  0.17160  1.0000
  C   C205      1.0  0.57652  0.54420  0.01842  1.0000
  O   O56       1.0  0.55064  0.51605  0.01434  1.0000
  C   C206      1.0  0.97121  0.54144  0.33945  1.0000
  C   C207      1.0  0.96021  0.54932  0.25794  1.0000
  C   C208      1.0  0.94203  0.56779  0.25714  1.0000
  C   C209      1.0  0.93458  0.57865  0.34012  1.0000
  N   N75       1.0  0.93271  0.57448  0.17492  1.0000
  C   C210      1.0  0.94008  0.56449  0.09546  1.0000
  C   C211      1.0  0.95809  0.54636  0.09645  1.0000
  N   N76       1.0  0.96722  0.53962  0.17773  1.0000
  O   O57       1.0  0.93043  0.57253  0.01686  1.0000
  H   H74       1.0  0.92044  0.58714  0.17156  1.0000
  C   C212      1.0  0.96641  0.53536  0.01823  1.0000
  O   O58       1.0  0.99469  0.53789  0.01477  1.0000
  C   C213      1.0  0.96910  0.93272  0.33950  1.0000
  C   C214      1.0  0.96123  0.91384  0.25798  1.0000
  C   C215      1.0  0.94276  0.87718  0.25718  1.0000
  C   C216      1.0  0.93189  0.85886  0.34016  1.0000
  N   N77       1.0  0.93606  0.86117  0.17496  1.0000
  C   C217      1.0  0.94607  0.87854  0.09550  1.0000
  C   C218      1.0  0.96421  0.91469  0.09651  1.0000
  N   N78       1.0  0.97093  0.93056  0.17779  1.0000
  O   O59       1.0  0.93799  0.86085  0.01689  1.0000
  H   H75       1.0  0.92339  0.83623  0.17158  1.0000
  C   C219      1.0  0.97519  0.93406  0.01843  1.0000
  O   O60       1.0  0.97291  0.95993  0.01438  1.0000
  C   C220      1.0  0.81041  0.58017  0.26963  1.0000
  C   C221      1.0  0.77910  0.58003  0.26910  1.0000
  H   H76       1.0  0.77022  0.58354  0.20884  1.0000
  H   H77       1.0  0.82281  0.58339  0.20932  1.0000
  O   O61       1.0  0.82760  0.58828  0.00806  1.0000
  C   C222      1.0  0.76397  0.58758  0.00389  1.0000
  O   O62       1.0  0.75385  0.60818  0.00383  1.0000
  O   O63       1.0  0.74546  0.56082  0.04553  1.0000
  H   H78       1.0  0.74855  0.54287  0.04783  1.0000
  C   C223      1.0  0.93045  0.73328  0.26972  1.0000
  C   C224      1.0  0.93042  0.70203  0.26904  1.0000
  H   H79       1.0  0.92686  0.68970  0.20868  1.0000
  H   H80       1.0  0.92707  0.74240  0.20952  1.0000
  O   O64       1.0  0.92233  0.74204  0.00817  1.0000
  C   C225      1.0  0.92301  0.67907  0.00345  1.0000
  O   O65       1.0  0.90295  0.64822  0.00381  1.0000
  O   O66       1.0  0.94973  0.68781  0.04601  1.0000
  H   H81       1.0  0.96746  0.70898  0.04862  1.0000
  C   C226      1.0  0.77735  0.70016  0.26934  1.0000
  C   C227      1.0  0.80854  0.73143  0.26873  1.0000
  H   H82       1.0  0.82088  0.74031  0.20842  1.0000
  H   H83       1.0  0.76810  0.68771  0.20913  1.0000
  O   O67       1.0  0.76849  0.68303  0.00790  1.0000
  C   C228      1.0  0.83148  0.74668  0.00336  1.0000
  O   O68       1.0  0.86231  0.75731  0.00397  1.0000
  O   O69       1.0  0.82286  0.76484  0.04549  1.0000
  H   H84       1.0  0.80173  0.76151  0.04791  1.0000
  C   C229      1.0  0.98789  0.96928  0.34112  1.0000
  N   N79       1.0  0.97138  0.98770  0.34078  1.0000
  C   C230      1.0  0.98899  0.52265  0.34107  1.0000
  N   N80       1.0  0.52393  0.53917  0.34076  1.0000
  C   C231      1.0  0.54127  0.52156  0.34110  1.0000
  N   N81       1.0  0.52285  0.98663  0.34081  1.0000
  C   C232      1.0  0.74067  0.64734  0.34777  1.0000
  N   N82       1.0  0.70574  0.62949  0.34532  1.0000
  C   C233      1.0  0.68823  0.59442  0.34436  1.0000
  N   N83       1.0  0.70628  0.57740  0.34510  1.0000
  C   C234      1.0  0.74122  0.59503  0.34707  1.0000
  N   N84       1.0  0.75759  0.62964  0.34901  1.0000
  C   C235      1.0  0.86319  0.59621  0.34771  1.0000
  N   N85       1.0  0.88106  0.57915  0.34537  1.0000
  C   C236      1.0  0.91613  0.59671  0.34431  1.0000
  N   N86       1.0  0.93314  0.63179  0.34491  1.0000
  C   C237      1.0  0.91550  0.64909  0.34678  1.0000
  N   N87       1.0  0.88089  0.63083  0.34882  1.0000
  C   C238      1.0  0.91437  0.76994  0.34796  1.0000
  N   N88       1.0  0.93142  0.80487  0.34553  1.0000
  C   C239      1.0  0.91384  0.82235  0.34436  1.0000
  N   N89       1.0  0.87876  0.80426  0.34489  1.0000
  C   C240      1.0  0.86147  0.76932  0.34696  1.0000
  N   N90       1.0  0.87974  0.75299  0.34903  1.0000
  C   C241      1.0  0.63269  0.56453  0.42114  1.0000
  C   C242      1.0  0.59653  0.54652  0.42073  1.0000
  H   H85       1.0  0.58378  0.53864  0.48086  1.0000
  H   H86       1.0  0.64516  0.56936  0.48181  1.0000
  O   O70       1.0  0.57575  0.56664  0.63879  1.0000
  H   H87       1.0  0.59142  0.58872  0.63968  1.0000
  C   C243      1.0  0.94597  0.57103  0.42112  1.0000
  C   C244      1.0  0.96398  0.55289  0.42071  1.0000
  H   H88       1.0  0.97181  0.54798  0.48086  1.0000
  H   H89       1.0  0.94110  0.57863  0.48180  1.0000
  O   O71       1.0  0.94404  0.51190  0.63921  1.0000
  H   H90       1.0  0.92193  0.50540  0.64007  1.0000
  C   C245      1.0  0.93950  0.87787  0.42116  1.0000
  C   C246      1.0  0.95764  0.91403  0.42075  1.0000
  H   H91       1.0  0.96254  0.92677  0.48090  1.0000
  H   H92       1.0  0.93190  0.86540  0.48184  1.0000
  O   O72       1.0  0.99844  0.93488  0.63889  1.0000
  H   H93       1.0  0.00486  0.91921  0.63976  1.0000
  C   C247      1.0  0.76304  0.58080  0.35011  1.0000
  C   C248      1.0  0.77932  0.58129  0.43224  1.0000
  C   C249      1.0  0.81110  0.58152  0.43411  1.0000
  C   C250      1.0  0.82707  0.58130  0.35143  1.0000
  N   N91       1.0  0.82600  0.58422  0.51666  1.0000
  C   C251      1.0  0.81167  0.58623  0.59556  1.0000
  C   C252      1.0  0.78050  0.58641  0.59323  1.0000
  N   N92       1.0  0.76588  0.58399  0.51170  1.0000
  H   H94       1.0  0.84760  0.58422  0.52059  1.0000
  C   C253      1.0  0.92972  0.68513  0.34984  1.0000
  C   C254      1.0  0.92931  0.70092  0.43205  1.0000
  C   C255      1.0  0.92909  0.73247  0.43414  1.0000
  C   C256      1.0  0.92928  0.74875  0.35163  1.0000
  N   N93       1.0  0.92641  0.74463  0.51678  1.0000
  C   C257      1.0  0.92441  0.72823  0.59558  1.0000
  C   C258      1.0  0.92424  0.69689  0.59304  1.0000
  N   N94       1.0  0.92661  0.68473  0.51143  1.0000
  H   H95       1.0  0.92637  0.76620  0.52085  1.0000
  C   C259      1.0  0.82540  0.74745  0.34967  1.0000
  C   C260      1.0  0.80970  0.73122  0.43193  1.0000
  C   C261      1.0  0.77815  0.69944  0.43389  1.0000
  C   C262      1.0  0.76192  0.68347  0.35120  1.0000
  N   N95       1.0  0.76597  0.68456  0.51649  1.0000
  C   C263      1.0  0.78234  0.69893  0.59534  1.0000
  C   C264      1.0  0.81371  0.73010  0.59291  1.0000
  N   N96       1.0  0.82588  0.74468  0.51136  1.0000
  H   H96       1.0  0.74437  0.66297  0.52050  1.0000
