data_image0
_chemical_formula_structural       C4NH3C4NH3N4C4NH3C4NH3N4C4NH3C4NH3C4NH3C4NH3N4C4NH3C4NH3N4C4NH3C4NH3N4C4NH3C4NH3CNCNCNCNCNCNCNCNCNCNCNCNCNCNCNCNCNCNCNCNCNCNCNCNCNCNCNCNCNCNCNCNCNCNCNCNCNCNCNCNCNCNCNCNCNCNCNCN5C4NH3C4NH3N4C4NH3C4NH3N8C4NH3C4NH3N4C4NH3C4NH3N4C4NH3C4NH3N4
_chemical_formula_sum              "C144 N120 H72"
_cell_length_a       43.5437
_cell_length_b       34.1448
_cell_length_c       14.7898
_cell_angle_alpha    90
_cell_angle_beta     90
_cell_angle_gamma    90

_space_group_name_H-M_alt    "P 1"
_space_group_IT_number       1

loop_
  _space_group_symop_operation_xyz
  'x, y, z'

loop_
  _atom_site_type_symbol
  _atom_site_label
  _atom_site_symmetry_multiplicity
  _atom_site_fract_x
  _atom_site_fract_y
  _atom_site_fract_z
  _atom_site_occupancy
  C   C1        1.0  0.00806  0.96830  0.33848  1.0000
  C   C2        1.0  0.03492  0.98831  0.31120  1.0000
  C   C3        1.0  0.03586  0.02972  0.30389  1.0000
  C   C4        1.0  0.00928  0.05141  0.33051  1.0000
  N   N1        1.0  0.06172  0.04598  0.26800  1.0000
  H   H1        1.0  0.07873  0.02967  0.24779  1.0000
  H   H2        1.0  0.06212  0.07290  0.24768  1.0000
  H   H3        1.0  0.05381  0.97246  0.29246  1.0000
  C   C5        1.0  0.50800  0.46832  0.33871  1.0000
  C   C6        1.0  0.53493  0.48833  0.31196  1.0000
  C   C7        1.0  0.53595  0.52977  0.30480  1.0000
  C   C8        1.0  0.50936  0.55155  0.33101  1.0000
  N   N2        1.0  0.56190  0.54595  0.26933  1.0000
  H   H4        1.0  0.57893  0.52960  0.24937  1.0000
  H   H5        1.0  0.56240  0.57287  0.24908  1.0000
  H   H6        1.0  0.55383  0.47246  0.29349  1.0000
  N   N3        1.0  0.06128  0.21482  0.33823  1.0000
  N   N4        1.0  0.08552  0.23761  0.33684  1.0000
  N   N5        1.0  0.94982  0.80689  0.33921  1.0000
  N   N6        1.0  0.92602  0.78343  0.33925  1.0000
  C   C9        1.0  0.89624  0.22393  0.34097  1.0000
  C   C10       1.0  0.89306  0.18413  0.31704  1.0000
  C   C11       1.0  0.91889  0.15841  0.31315  1.0000
  C   C12       1.0  0.94862  0.17343  0.33675  1.0000
  N   N7        1.0  0.91347  0.12116  0.28432  1.0000
  H   H7        1.0  0.89292  0.11268  0.26714  1.0000
  H   H8        1.0  0.92979  0.10288  0.27177  1.0000
  H   H9        1.0  0.87173  0.17403  0.29956  1.0000
  C   C13       1.0  0.11396  0.79306  0.34010  1.0000
  C   C14       1.0  0.11684  0.83191  0.30878  1.0000
  C   C15       1.0  0.09086  0.85715  0.30216  1.0000
  C   C16       1.0  0.06159  0.84310  0.33266  1.0000
  N   N8        1.0  0.09535  0.89275  0.26284  1.0000
  H   H10       1.0  0.11546  0.90038  0.24005  1.0000
  H   H11       1.0  0.07830  0.90865  0.24291  1.0000
  H   H12       1.0  0.13783  0.84125  0.28627  1.0000
  N   N9        1.0  0.56098  0.71553  0.33938  1.0000
  N   N10       1.0  0.58508  0.73859  0.33783  1.0000
  N   N11       1.0  0.45014  0.30635  0.34039  1.0000
  N   N12       1.0  0.42646  0.28266  0.34026  1.0000
  C   C17       1.0  0.39684  0.72490  0.33998  1.0000
  C   C18       1.0  0.39341  0.68494  0.31764  1.0000
  C   C19       1.0  0.41908  0.65902  0.31380  1.0000
  C   C20       1.0  0.44893  0.67401  0.33603  1.0000
  N   N13       1.0  0.41339  0.62160  0.28668  1.0000
  H   H13       1.0  0.39274  0.61316  0.27044  1.0000
  H   H14       1.0  0.42957  0.60308  0.27443  1.0000
  H   H15       1.0  0.37197  0.67480  0.30161  1.0000
  C   C21       1.0  0.61336  0.29224  0.33940  1.0000
  C   C22       1.0  0.61655  0.33129  0.30966  1.0000
  C   C23       1.0  0.59075  0.35678  0.30297  1.0000
  C   C24       1.0  0.56132  0.34273  0.33197  1.0000
  N   N14       1.0  0.59560  0.39264  0.26531  1.0000
  H   H16       1.0  0.61585  0.40025  0.24355  1.0000
  H   H17       1.0  0.57873  0.40882  0.24532  1.0000
  H   H18       1.0  0.63770  0.34072  0.28871  1.0000
  C   C25       1.0  0.36622  0.15933  0.32730  1.0000
  C   C26       1.0  0.38785  0.14920  0.26060  1.0000
  C   C27       1.0  0.39583  0.10958  0.24608  1.0000
  C   C28       1.0  0.38306  0.08078  0.30523  1.0000
  N   N15       1.0  0.41476  0.10096  0.17553  1.0000
  H   H19       1.0  0.42204  0.12136  0.13482  1.0000
  H   H20       1.0  0.41762  0.07414  0.15547  1.0000
  H   H21       1.0  0.39700  0.17062  0.22027  1.0000
  C   C29       1.0  0.64822  0.85992  0.32084  1.0000
  C   C30       1.0  0.62843  0.87074  0.24997  1.0000
  C   C31       1.0  0.62081  0.91050  0.23637  1.0000
  C   C32       1.0  0.63225  0.93861  0.29948  1.0000
  N   N16       1.0  0.60298  0.92012  0.16410  1.0000
  H   H22       1.0  0.59599  0.90033  0.12142  1.0000
  H   H23       1.0  0.59948  0.94727  0.14733  1.0000
  H   H24       1.0  0.62002  0.84973  0.20714  1.0000
  N   N17       1.0  0.65068  0.09243  0.32992  1.0000
  N   N18       1.0  0.65947  0.12911  0.32771  1.0000
  N   N19       1.0  0.35828  0.92494  0.32596  1.0000
  N   N20       1.0  0.35006  0.88802  0.32291  1.0000
  C   C33       1.0  0.86778  0.65937  0.33200  1.0000
  C   C34       1.0  0.88885  0.64943  0.26368  1.0000
  C   C35       1.0  0.89632  0.60978  0.24729  1.0000
  C   C36       1.0  0.88363  0.58080  0.30614  1.0000
  N   N21       1.0  0.91469  0.60130  0.17537  1.0000
  H   H25       1.0  0.92192  0.62184  0.13497  1.0000
  H   H26       1.0  0.91714  0.57456  0.15428  1.0000
  H   H27       1.0  0.89786  0.67098  0.22342  1.0000
  C   C37       1.0  0.14694  0.35960  0.32447  1.0000
  C   C38       1.0  0.12769  0.37022  0.25217  1.0000
  C   C39       1.0  0.12059  0.41002  0.23679  1.0000
  C   C40       1.0  0.13199  0.43832  0.29949  1.0000
  N   N22       1.0  0.10328  0.41951  0.16337  1.0000
  H   H28       1.0  0.09629  0.39958  0.12102  1.0000
  H   H29       1.0  0.10014  0.44661  0.14564  1.0000
  H   H30       1.0  0.11941  0.34907  0.20952  1.0000
  N   N23       1.0  0.15007  0.59230  0.32879  1.0000
  N   N24       1.0  0.15853  0.62906  0.32557  1.0000
  N   N25       1.0  0.85892  0.42485  0.32531  1.0000
  N   N26       1.0  0.85097  0.38788  0.32163  1.0000
  C   C41       1.0  0.53718  0.00434  0.31267  1.0000
  C   C42       1.0  0.52209  0.97074  0.27905  1.0000
  C   C43       1.0  0.48975  0.96954  0.27313  1.0000
  C   C44       1.0  0.47342  0.00293  0.30464  1.0000
  N   N27       1.0  0.47624  0.93752  0.23539  1.0000
  H   H31       1.0  0.48852  0.91600  0.21178  1.0000
  H   H32       1.0  0.45455  0.93716  0.22067  1.0000
  H   H33       1.0  0.53462  0.94718  0.25731  1.0000
  C   C45       1.0  0.03720  0.50425  0.30887  1.0000
  C   C46       1.0  0.02220  0.47070  0.27470  1.0000
  C   C47       1.0  0.98987  0.46947  0.26875  1.0000
  C   C48       1.0  0.97355  0.50279  0.30058  1.0000
  N   N28       1.0  0.97635  0.43750  0.23086  1.0000
  H   H34       1.0  0.98858  0.41581  0.20781  1.0000
  H   H35       1.0  0.95459  0.43689  0.21714  1.0000
  H   H36       1.0  0.03476  0.44720  0.25282  1.0000
  N   N29       1.0  0.23678  0.23441  0.35976  1.0000
  N   N30       1.0  0.26651  0.22852  0.35481  1.0000
  N   N31       1.0  0.77566  0.78320  0.36034  1.0000
  N   N32       1.0  0.74599  0.78920  0.35428  1.0000
  C   C49       1.0  0.72300  0.25391  0.31971  1.0000
  C   C50       1.0  0.73422  0.28848  0.27956  1.0000
  C   C51       1.0  0.76626  0.29489  0.26967  1.0000
  C   C52       1.0  0.78705  0.26652  0.30626  1.0000
  N   N33       1.0  0.77551  0.32719  0.22303  1.0000
  H   H37       1.0  0.76062  0.34497  0.19607  1.0000
  H   H38       1.0  0.79661  0.33014  0.20313  1.0000
  H   H39       1.0  0.71894  0.30851  0.25442  1.0000
  C   C53       1.0  0.28705  0.76257  0.31942  1.0000
  C   C54       1.0  0.27585  0.72772  0.28054  1.0000
  C   C55       1.0  0.24380  0.72122  0.27098  1.0000
  C   C56       1.0  0.22301  0.74979  0.30662  1.0000
  N   N34       1.0  0.23458  0.68864  0.22534  1.0000
  H   H40       1.0  0.24944  0.67046  0.19968  1.0000
  H   H41       1.0  0.21343  0.68520  0.20638  1.0000
  H   H42       1.0  0.29114  0.70761  0.25586  1.0000
  C   C57       1.0  0.97773  0.15296  0.34022  1.0000
  N   N35       1.0  0.98011  0.11309  0.33493  1.0000
  C   C58       1.0  0.00732  0.09333  0.33666  1.0000
  N   N36       1.0  0.03290  0.11561  0.34779  1.0000
  C   C59       1.0  0.03306  0.15522  0.35586  1.0000
  N   N37       1.0  0.00490  0.17300  0.35045  1.0000
  C   C60       1.0  0.03310  0.86462  0.33798  1.0000
  N   N38       1.0  0.03256  0.90443  0.33715  1.0000
  C   C61       1.0  0.00654  0.92641  0.34295  1.0000
  N   N39       1.0  0.97957  0.90644  0.35131  1.0000
  C   C62       1.0  0.97782  0.86650  0.35489  1.0000
  N   N40       1.0  0.00515  0.84667  0.34756  1.0000
  C   C63       1.0  0.47791  0.65328  0.33979  1.0000
  N   N41       1.0  0.48025  0.61338  0.33479  1.0000
  C   C64       1.0  0.50744  0.59354  0.33692  1.0000
  N   N42       1.0  0.53301  0.61586  0.34802  1.0000
  C   C65       1.0  0.53318  0.65551  0.35573  1.0000
  N   N43       1.0  0.50505  0.67328  0.35004  1.0000
  C   C66       1.0  0.53297  0.36451  0.33754  1.0000
  N   N44       1.0  0.53245  0.40434  0.33691  1.0000
  C   C67       1.0  0.50645  0.42637  0.34300  1.0000
  N   N45       1.0  0.47949  0.40634  0.35143  1.0000
  C   C68       1.0  0.47775  0.36637  0.35481  1.0000
  N   N46       1.0  0.50505  0.34658  0.34721  1.0000
  C   C69       1.0  0.39446  0.97514  0.35700  1.0000
  N   N47       1.0  0.37952  0.00989  0.34242  1.0000
  C   C70       1.0  0.39541  0.04250  0.31496  1.0000
  N   N48       1.0  0.42629  0.03935  0.30447  1.0000
  C   C71       1.0  0.44140  0.00514  0.31401  1.0000
  N   N49       1.0  0.42506  0.97377  0.34092  1.0000
  C   C72       1.0  0.61449  0.04203  0.35887  1.0000
  N   N50       1.0  0.63174  0.00940  0.34057  1.0000
  C   C73       1.0  0.61799  0.97544  0.31272  1.0000
  N   N51       1.0  0.58699  0.97500  0.30623  1.0000
  C   C74       1.0  0.56928  0.00665  0.32151  1.0000
  N   N52       1.0  0.58358  0.03995  0.34707  1.0000
  C   C75       1.0  0.89499  0.47500  0.35606  1.0000
  N   N53       1.0  0.88000  0.50981  0.34259  1.0000
  C   C76       1.0  0.89580  0.54239  0.31451  1.0000
  N   N54       1.0  0.92657  0.53917  0.30228  1.0000
  C   C77       1.0  0.94163  0.50490  0.31073  1.0000
  N   N55       1.0  0.92547  0.47354  0.33840  1.0000
  C   C78       1.0  0.11419  0.54186  0.35786  1.0000
  N   N56       1.0  0.13152  0.50922  0.34022  1.0000
  C   C79       1.0  0.11788  0.47531  0.31156  1.0000
  N   N57       1.0  0.08693  0.47491  0.30387  1.0000
  C   C80       1.0  0.06921  0.50656  0.31853  1.0000
  N   N58       1.0  0.08336  0.53982  0.34487  1.0000
  C   C81       1.0  0.13936  0.25339  0.35893  1.0000
  N   N59       1.0  0.16948  0.24479  0.37920  1.0000
  C   C82       1.0  0.19180  0.27320  0.38352  1.0000
  N   N60       1.0  0.18318  0.31042  0.36412  1.0000
  C   C83       1.0  0.15407  0.32027  0.34289  1.0000
  N   N61       1.0  0.13257  0.29150  0.34046  1.0000
  C   C84       1.0  0.87267  0.76623  0.36220  1.0000
  N   N62       1.0  0.84230  0.77389  0.38072  1.0000
  C   C85       1.0  0.82060  0.74471  0.38562  1.0000
  N   N63       1.0  0.83014  0.70761  0.36858  1.0000
  C   C86       1.0  0.85960  0.69857  0.34932  1.0000
  N   N64       1.0  0.88037  0.72819  0.34612  1.0000
  C   C87       1.0  0.87169  0.25211  0.34109  1.0000
  N   N65       1.0  0.84136  0.24390  0.32303  1.0000
  C   C88       1.0  0.81930  0.27265  0.31892  1.0000
  N   N66       1.0  0.82848  0.30988  0.33606  1.0000
  C   C89       1.0  0.85784  0.31954  0.35520  1.0000
  N   N67       1.0  0.87900  0.29031  0.35715  1.0000
  C   C90       1.0  0.13848  0.76496  0.34121  1.0000
  N   N68       1.0  0.16883  0.77283  0.32277  1.0000
  C   C91       1.0  0.19073  0.74387  0.31936  1.0000
  N   N69       1.0  0.18133  0.70679  0.33737  1.0000
  C   C92       1.0  0.15190  0.69753  0.35681  1.0000
  N   N70       1.0  0.13095  0.72696  0.35804  1.0000
  C   C93       1.0  0.63915  0.75417  0.35669  1.0000
  N   N71       1.0  0.66929  0.74450  0.37220  1.0000
  C   C94       1.0  0.69246  0.77174  0.37036  1.0000
  N   N72       1.0  0.68464  0.80956  0.35384  1.0000
  C   C95       1.0  0.65525  0.82044  0.33817  1.0000
  N   N73       1.0  0.63299  0.79251  0.33907  1.0000
  C   C96       1.0  0.37286  0.26573  0.35994  1.0000
  N   N74       1.0  0.34253  0.27448  0.37469  1.0000
  C   C97       1.0  0.31993  0.24646  0.37357  1.0000
  N   N75       1.0  0.32850  0.20876  0.35843  1.0000
  C   C98       1.0  0.35817  0.19869  0.34371  1.0000
  N   N76       1.0  0.37978  0.22746  0.34391  1.0000
  C   C99       1.0  0.37214  0.75280  0.34186  1.0000
  N   N77       1.0  0.34185  0.74351  0.32817  1.0000
  C   C100      1.0  0.31894  0.77111  0.32978  1.0000
  N   N78       1.0  0.32720  0.80897  0.34417  1.0000
  C   C101      1.0  0.35678  0.81965  0.35818  1.0000
  N   N79       1.0  0.37872  0.79124  0.35717  1.0000
  C   C102      1.0  0.63803  0.26444  0.34247  1.0000
  N   N80       1.0  0.66834  0.27340  0.32822  1.0000
  C   C103      1.0  0.69109  0.24560  0.33066  1.0000
  N   N81       1.0  0.68262  0.20789  0.34618  1.0000
  C   C104      1.0  0.65296  0.19762  0.36071  1.0000
  N   N82       1.0  0.63123  0.22621  0.35884  1.0000
  N   N83       1.0  0.98429  0.02987  0.35577  1.0000
  N   N84       1.0  0.98354  0.99139  0.35884  1.0000
  N   N85       1.0  0.48431  0.53001  0.35575  1.0000
  N   N86       1.0  0.48349  0.49150  0.35872  1.0000
  C   C105      1.0  0.11445  0.22579  0.35896  1.0000
  C   C106      1.0  0.11709  0.18628  0.38570  1.0000
  C   C107      1.0  0.09095  0.16123  0.39020  1.0000
  C   C108      1.0  0.06162  0.17644  0.36328  1.0000
  N   N87       1.0  0.09540  0.12454  0.42389  1.0000
  H   H43       1.0  0.11561  0.11602  0.44414  1.0000
  H   H44       1.0  0.07840  0.10795  0.44122  1.0000
  H   H45       1.0  0.13815  0.17606  0.40552  1.0000
  C   C109      1.0  0.89695  0.79474  0.36077  1.0000
  C   C110      1.0  0.89369  0.83456  0.38457  1.0000
  C   C111      1.0  0.91943  0.86043  0.38685  1.0000
  C   C112      1.0  0.94903  0.84560  0.36148  1.0000
  N   N88       1.0  0.91433  0.89760  0.41649  1.0000
  H   H46       1.0  0.89392  0.90614  0.43497  1.0000
  H   H47       1.0  0.93086  0.91571  0.42854  1.0000
  H   H48       1.0  0.87246  0.84449  0.40351  1.0000
  N   N89       1.0  0.94931  0.21214  0.35925  1.0000
  N   N90       1.0  0.92539  0.23544  0.36088  1.0000
  N   N91       1.0  0.06107  0.80535  0.36232  1.0000
  N   N92       1.0  0.08508  0.78221  0.36508  1.0000
  C   C113      1.0  0.61411  0.72682  0.35873  1.0000
  C   C114      1.0  0.61704  0.68718  0.38424  1.0000
  C   C115      1.0  0.59107  0.66188  0.38897  1.0000
  C   C116      1.0  0.56161  0.67699  0.36325  1.0000
  N   N93       1.0  0.59586  0.62506  0.42148  1.0000
  H   H49       1.0  0.61618  0.61664  0.44090  1.0000
  H   H50       1.0  0.57903  0.60825  0.43899  1.0000
  H   H51       1.0  0.63823  0.67696  0.40275  1.0000
  C   C117      1.0  0.39731  0.29395  0.36061  1.0000
  C   C118      1.0  0.39380  0.33387  0.38333  1.0000
  C   C119      1.0  0.41938  0.35994  0.38578  1.0000
  C   C120      1.0  0.44909  0.34521  0.36150  1.0000
  N   N94       1.0  0.41398  0.39723  0.41420  1.0000
  H   H52       1.0  0.39348  0.40568  0.43191  1.0000
  H   H53       1.0  0.43038  0.41554  0.42620  1.0000
  H   H54       1.0  0.37244  0.34380  0.40096  1.0000
  N   N95       1.0  0.44987  0.71291  0.35695  1.0000
  N   N96       1.0  0.42607  0.73643  0.35854  1.0000
  N   N97       1.0  0.56050  0.30473  0.36005  1.0000
  N   N98       1.0  0.58436  0.28134  0.36290  1.0000
  N   N99       1.0  0.36205  0.09304  0.36719  1.0000
  N   N100      1.0  0.35374  0.12973  0.37660  1.0000
  N   N101      1.0  0.65152  0.92566  0.36539  1.0000
  N   N102      1.0  0.65950  0.88886  0.37448  1.0000
  C   C121      1.0  0.64464  0.15805  0.37329  1.0000
  C   C122      1.0  0.61961  0.14710  0.42808  1.0000
  C   C123      1.0  0.61058  0.10743  0.43430  1.0000
  C   C124      1.0  0.62651  0.07952  0.37996  1.0000
  N   N103      1.0  0.58745  0.09780  0.49210  1.0000
  H   H55       1.0  0.57782  0.11749  0.53034  1.0000
  H   H56       1.0  0.58282  0.07064  0.50597  1.0000
  H   H57       1.0  0.60818  0.16799  0.46466  1.0000
  C   C125      1.0  0.36443  0.85945  0.37105  1.0000
  C   C126      1.0  0.38820  0.87107  0.42972  1.0000
  C   C127      1.0  0.39652  0.91096  0.43674  1.0000
  C   C128      1.0  0.38118  0.93857  0.38003  1.0000
  N   N104      1.0  0.41885  0.92127  0.49660  1.0000
  H   H58       1.0  0.42837  0.90193  0.53603  1.0000
  H   H59       1.0  0.42338  0.94859  0.50922  1.0000
  H   H60       1.0  0.39934  0.85050  0.46801  1.0000
  N   N105      1.0  0.86319  0.59290  0.36980  1.0000
  N   N106      1.0  0.85531  0.62963  0.38087  1.0000
  N   N107      1.0  0.15068  0.42557  0.36695  1.0000
  N   N108      1.0  0.15823  0.38873  0.37759  1.0000
  C   C129      1.0  0.14344  0.65808  0.37010  1.0000
  C   C130      1.0  0.11846  0.64717  0.42506  1.0000
  C   C131      1.0  0.10976  0.60742  0.43236  1.0000
  C   C132      1.0  0.12601  0.57937  0.37919  1.0000
  N   N109      1.0  0.08659  0.59776  0.48997  1.0000
  H   H61       1.0  0.07669  0.61751  0.52743  1.0000
  H   H62       1.0  0.08211  0.57060  0.50431  1.0000
  H   H63       1.0  0.10684  0.66813  0.46091  1.0000
  C   C133      1.0  0.86566  0.35923  0.36871  1.0000
  C   C134      1.0  0.88947  0.37080  0.42725  1.0000
  C   C135      1.0  0.89753  0.41076  0.43504  1.0000
  C   C136      1.0  0.88184  0.43842  0.37923  1.0000
  N   N110      1.0  0.91995  0.42110  0.49454  1.0000
  H   H64       1.0  0.92973  0.40172  0.53332  1.0000
  H   H65       1.0  0.92436  0.44843  0.50748  1.0000
  H   H66       1.0  0.90080  0.35017  0.46485  1.0000
  N   N111      1.0  0.48965  0.03426  0.33503  1.0000
  N   N112      1.0  0.51955  0.03508  0.33851  1.0000
  N   N113      1.0  0.98972  0.53408  0.33147  1.0000
  N   N114      1.0  0.01958  0.53493  0.33507  1.0000
  C   C137      1.0  0.28801  0.25456  0.38433  1.0000
  C   C138      1.0  0.27668  0.28900  0.42478  1.0000
  C   C139      1.0  0.24462  0.29525  0.43440  1.0000
  C   C140      1.0  0.22395  0.26685  0.39744  1.0000
  N   N115      1.0  0.23519  0.32749  0.48094  1.0000
  H   H67       1.0  0.24997  0.34534  0.50815  1.0000
  H   H68       1.0  0.21402  0.33038  0.50025  1.0000
  H   H69       1.0  0.29188  0.30905  0.45022  1.0000
  C   C141      1.0  0.72427  0.76308  0.38187  1.0000
  C   C142      1.0  0.73532  0.72827  0.42130  1.0000
  C   C143      1.0  0.76734  0.72183  0.43205  1.0000
  C   C144      1.0  0.78826  0.75046  0.39726  1.0000
  N   N116      1.0  0.77641  0.68923  0.47786  1.0000
  H   H70       1.0  0.76142  0.67126  0.50364  1.0000
  H   H71       1.0  0.79742  0.68617  0.49843  1.0000
  H   H72       1.0  0.71993  0.70813  0.44532  1.0000
  N   N117      1.0  0.77431  0.23391  0.34343  1.0000
  N   N118      1.0  0.74460  0.22789  0.34863  1.0000
  N   N119      1.0  0.23574  0.78264  0.34270  1.0000
  N   N120      1.0  0.26544  0.78873  0.34758  1.0000
