data_image0
_chemical_formula_structural       CNH2CNHCNH2NC18H12NC18H12C3NOCH2C3NOCH3C3NOCH2CNH2CNHCNH2NC18H12NC18H12C3NOCH2C3NOCH3C3NOCH2CNH2CNHCNH2NC18H12NC18H12C3NOCH2C3NOCH3C3NOCH2CNH2CNHCNH2NC18H12NC18H12C3NOCH2C3NOCH3C3NOCH2
_chemical_formula_sum              "C204 N32 H144 O12"
_cell_length_a       49.8556
_cell_length_b       49.8556
_cell_length_c       14.4953
_cell_angle_alpha    90
_cell_angle_beta     90
_cell_angle_gamma    120

_space_group_name_H-M_alt    "P 1"
_space_group_IT_number       1

loop_
  _space_group_symop_operation_xyz
  'x, y, z'

loop_
  _atom_site_type_symbol
  _atom_site_label
  _atom_site_symmetry_multiplicity
  _atom_site_fract_x
  _atom_site_fract_y
  _atom_site_fract_z
  _atom_site_occupancy
  C   C1        1.0  0.27594  0.28269  0.29347  1.0000
  N   N1        1.0  0.29135  0.26660  0.29405  1.0000
  H   H1        1.0  0.27660  0.29410  0.23419  1.0000
  H   H2        1.0  0.25047  0.27551  0.00287  1.0000
  C   C2        1.0  0.26078  0.50196  0.29132  1.0000
  N   N2        1.0  0.27655  0.03349  0.29202  1.0000
  H   H3        1.0  0.24909  0.49113  0.23247  1.0000
  C   C3        1.0  0.04124  0.28356  0.29436  1.0000
  N   N3        1.0  0.50972  0.26760  0.29456  1.0000
  H   H4        1.0  0.05194  0.29586  0.23626  1.0000
  H   H5        1.0  0.05859  0.27050  0.00102  1.0000
  N   N4        1.0  0.19275  0.35075  0.36635  1.0000
  C   C4        1.0  0.20943  0.33426  0.36769  1.0000
  C   C5        1.0  0.20939  0.38395  0.36770  1.0000
  C   C6        1.0  0.15956  0.33404  0.36801  1.0000
  C   C7        1.0  0.14209  0.32028  0.28746  1.0000
  C   C8        1.0  0.10938  0.30363  0.28933  1.0000
  C   C9        1.0  0.09234  0.30060  0.37109  1.0000
  C   C10       1.0  0.11028  0.31523  0.45085  1.0000
  C   C11       1.0  0.14294  0.33091  0.44997  1.0000
  C   C12       1.0  0.22666  0.33507  0.44600  1.0000
  C   C13       1.0  0.24334  0.31904  0.44745  1.0000
  C   C14       1.0  0.24324  0.30100  0.37149  1.0000
  C   C15       1.0  0.22601  0.30059  0.29295  1.0000
  C   C16       1.0  0.20969  0.31697  0.29083  1.0000
  C   C17       1.0  0.22635  0.40110  0.28988  1.0000
  C   C18       1.0  0.24285  0.43384  0.29076  1.0000
  C   C19       1.0  0.24307  0.45104  0.36922  1.0000
  C   C20       1.0  0.22570  0.43349  0.44647  1.0000
  C   C21       1.0  0.20967  0.40083  0.44631  1.0000
  H   H6        1.0  0.25630  0.32141  0.50462  1.0000
  H   H7        1.0  0.22738  0.34772  0.50248  1.0000
  H   H8        1.0  0.19797  0.31619  0.23221  1.0000
  H   H9        1.0  0.22479  0.28789  0.23603  1.0000
  H   H10       1.0  0.15317  0.32230  0.22636  1.0000
  H   H11       1.0  0.09810  0.29339  0.22935  1.0000
  H   H12       1.0  0.22683  0.38967  0.23184  1.0000
  H   H13       1.0  0.25523  0.44509  0.23315  1.0000
  H   H14       1.0  0.22390  0.44431  0.50398  1.0000
  H   H15       1.0  0.19810  0.38946  0.50460  1.0000
  H   H16       1.0  0.15456  0.34021  0.51014  1.0000
  H   H17       1.0  0.09983  0.31532  0.51120  1.0000
  N   N5        1.0  0.35925  0.18402  0.36557  1.0000
  C   C22       1.0  0.34262  0.20050  0.36598  1.0000
  C   C23       1.0  0.34269  0.15089  0.36628  1.0000
  C   C24       1.0  0.39238  0.20065  0.36619  1.0000
  C   C25       1.0  0.40948  0.21308  0.28420  1.0000
  C   C26       1.0  0.44219  0.22969  0.28486  1.0000
  C   C27       1.0  0.45927  0.23411  0.36726  1.0000
  C   C28       1.0  0.44186  0.22132  0.44913  1.0000
  C   C29       1.0  0.40917  0.20522  0.44875  1.0000
  C   C30       1.0  0.32686  0.20138  0.44583  1.0000
  C   C31       1.0  0.31046  0.21770  0.44671  1.0000
  C   C32       1.0  0.30905  0.23386  0.36784  1.0000
  C   C33       1.0  0.32484  0.23263  0.28789  1.0000
  C   C34       1.0  0.34118  0.21628  0.28690  1.0000
  C   C35       1.0  0.32669  0.13397  0.28705  1.0000
  C   C36       1.0  0.31033  0.10125  0.28702  1.0000
  C   C37       1.0  0.30926  0.08396  0.36617  1.0000
  C   C38       1.0  0.32529  0.10125  0.44552  1.0000
  C   C39       1.0  0.34154  0.13394  0.44568  1.0000
  H   H18       1.0  0.29956  0.21767  0.50652  1.0000
  H   H19       1.0  0.32741  0.19017  0.50429  1.0000
  H   H20       1.0  0.35193  0.21580  0.22743  1.0000
  H   H21       1.0  0.32461  0.24370  0.22869  1.0000
  H   H22       1.0  0.39812  0.20993  0.22295  1.0000
  H   H23       1.0  0.45344  0.23817  0.22351  1.0000
  H   H24       1.0  0.32699  0.14554  0.22841  1.0000
  H   H25       1.0  0.29918  0.09013  0.22774  1.0000
  H   H26       1.0  0.32525  0.09020  0.50504  1.0000
  H   H27       1.0  0.35239  0.14534  0.50485  1.0000
  H   H28       1.0  0.39760  0.19698  0.50970  1.0000
  H   H29       1.0  0.45283  0.22401  0.51095  1.0000
  C   C40       1.0  0.26196  0.26808  0.45093  1.0000
  C   C41       1.0  0.26007  0.28428  0.37267  1.0000
  C   C42       1.0  0.29258  0.25074  0.36889  1.0000
  N   N6        1.0  0.27734  0.25191  0.44529  1.0000
  O   O1        1.0  0.24606  0.26564  0.53055  1.0000
  C   C43       1.0  0.26504  0.27646  0.61214  1.0000
  H   H30       1.0  0.27480  0.26174  0.62906  1.0000
  H   H31       1.0  0.28379  0.30041  0.60453  1.0000
  C   C44       1.0  0.27628  0.50272  0.44794  1.0000
  C   C45       1.0  0.25979  0.48458  0.37004  1.0000
  C   C46       1.0  0.29263  0.05061  0.36655  1.0000
  N   N7        1.0  0.29208  0.03425  0.44233  1.0000
  O   O2        1.0  0.27938  0.48940  0.52699  1.0000
  C   C47       1.0  0.26930  0.49767  0.60992  1.0000
  H   H32       1.0  0.28423  0.52216  0.62642  1.0000
  H   H33       1.0  0.27067  0.48407  0.66666  1.0000
  H   H34       1.0  0.24533  0.49257  0.60436  1.0000
  C   C48       1.0  0.04039  0.26662  0.44912  1.0000
  C   C49       1.0  0.05869  0.28390  0.37224  1.0000
  C   C50       1.0  0.49258  0.25082  0.36807  1.0000
  N   N8        1.0  0.50886  0.25079  0.44325  1.0000
  O   O3        1.0  0.05330  0.26258  0.52760  1.0000
  C   C51       1.0  0.04531  0.27259  0.61124  1.0000
  H   H35       1.0  0.05104  0.29678  0.60697  1.0000
  H   H36       1.0  0.02073  0.25807  0.62731  1.0000
  C   C52       1.0  0.27594  0.78270  0.29347  1.0000
  N   N9        1.0  0.29135  0.76660  0.29405  1.0000
  H   H37       1.0  0.27660  0.79410  0.23419  1.0000
  H   H38       1.0  0.25047  0.77550  0.00287  1.0000
  C   C53       1.0  0.26078  0.00196  0.29132  1.0000
  N   N10       1.0  0.27655  0.53348  0.29202  1.0000
  H   H39       1.0  0.24909  0.99113  0.23247  1.0000
  C   C54       1.0  0.04124  0.78356  0.29436  1.0000
  N   N11       1.0  0.50972  0.76760  0.29456  1.0000
  H   H40       1.0  0.05195  0.79586  0.23626  1.0000
  H   H41       1.0  0.05859  0.77051  0.00102  1.0000
  N   N12       1.0  0.19275  0.85075  0.36635  1.0000
  C   C55       1.0  0.20943  0.83426  0.36769  1.0000
  C   C56       1.0  0.20939  0.88395  0.36770  1.0000
  C   C57       1.0  0.15956  0.83405  0.36801  1.0000
  C   C58       1.0  0.14210  0.82028  0.28746  1.0000
  C   C59       1.0  0.10938  0.80363  0.28933  1.0000
  C   C60       1.0  0.09234  0.80060  0.37109  1.0000
  C   C61       1.0  0.11028  0.81523  0.45085  1.0000
  C   C62       1.0  0.14294  0.83091  0.44997  1.0000
  C   C63       1.0  0.22666  0.83507  0.44600  1.0000
  C   C64       1.0  0.24334  0.81904  0.44745  1.0000
  C   C65       1.0  0.24324  0.80100  0.37149  1.0000
  C   C66       1.0  0.22601  0.80059  0.29295  1.0000
  C   C67       1.0  0.20969  0.81697  0.29083  1.0000
  C   C68       1.0  0.22634  0.90110  0.28988  1.0000
  C   C69       1.0  0.24285  0.93384  0.29076  1.0000
  C   C70       1.0  0.24307  0.95104  0.36922  1.0000
  C   C71       1.0  0.22570  0.93349  0.44647  1.0000
  C   C72       1.0  0.20967  0.90083  0.44631  1.0000
  H   H42       1.0  0.25630  0.82141  0.50462  1.0000
  H   H43       1.0  0.22738  0.84772  0.50249  1.0000
  H   H44       1.0  0.19797  0.81619  0.23220  1.0000
  H   H45       1.0  0.22479  0.78789  0.23603  1.0000
  H   H46       1.0  0.15317  0.82230  0.22636  1.0000
  H   H47       1.0  0.09810  0.79339  0.22935  1.0000
  H   H48       1.0  0.22683  0.88967  0.23184  1.0000
  H   H49       1.0  0.25523  0.94509  0.23315  1.0000
  H   H50       1.0  0.22390  0.94431  0.50398  1.0000
  H   H51       1.0  0.19810  0.88946  0.50460  1.0000
  H   H52       1.0  0.15456  0.84021  0.51014  1.0000
  H   H53       1.0  0.09983  0.81532  0.51120  1.0000
  N   N13       1.0  0.35925  0.68402  0.36557  1.0000
  C   C73       1.0  0.34262  0.70050  0.36598  1.0000
  C   C74       1.0  0.34269  0.65089  0.36628  1.0000
  C   C75       1.0  0.39238  0.70065  0.36619  1.0000
  C   C76       1.0  0.40948  0.71308  0.28420  1.0000
  C   C77       1.0  0.44219  0.72969  0.28486  1.0000
  C   C78       1.0  0.45928  0.73411  0.36726  1.0000
  C   C79       1.0  0.44186  0.72132  0.44913  1.0000
  C   C80       1.0  0.40917  0.70522  0.44876  1.0000
  C   C81       1.0  0.32687  0.70138  0.44583  1.0000
  C   C82       1.0  0.31046  0.71770  0.44671  1.0000
  C   C83       1.0  0.30905  0.73385  0.36784  1.0000
  C   C84       1.0  0.32484  0.73263  0.28789  1.0000
  C   C85       1.0  0.34118  0.71628  0.28690  1.0000
  C   C86       1.0  0.32669  0.63397  0.28705  1.0000
  C   C87       1.0  0.31033  0.60125  0.28702  1.0000
  C   C88       1.0  0.30926  0.58396  0.36617  1.0000
  C   C89       1.0  0.32529  0.60125  0.44552  1.0000
  C   C90       1.0  0.34154  0.63394  0.44568  1.0000
  H   H54       1.0  0.29956  0.71767  0.50652  1.0000
  H   H55       1.0  0.32741  0.69017  0.50429  1.0000
  H   H56       1.0  0.35194  0.71580  0.22743  1.0000
  H   H57       1.0  0.32461  0.74370  0.22869  1.0000
  H   H58       1.0  0.39812  0.70993  0.22295  1.0000
  H   H59       1.0  0.45344  0.73817  0.22351  1.0000
  H   H60       1.0  0.32699  0.64554  0.22841  1.0000
  H   H61       1.0  0.29918  0.59013  0.22774  1.0000
  H   H62       1.0  0.32525  0.59020  0.50504  1.0000
  H   H63       1.0  0.35239  0.64534  0.50485  1.0000
  H   H64       1.0  0.39760  0.69698  0.50970  1.0000
  H   H65       1.0  0.45283  0.72401  0.51095  1.0000
  C   C91       1.0  0.26196  0.76808  0.45093  1.0000
  C   C92       1.0  0.26007  0.78428  0.37267  1.0000
  C   C93       1.0  0.29258  0.75074  0.36888  1.0000
  N   N14       1.0  0.27734  0.75191  0.44528  1.0000
  O   O4        1.0  0.24606  0.76564  0.53055  1.0000
  C   C94       1.0  0.26504  0.77646  0.61214  1.0000
  H   H66       1.0  0.27480  0.76174  0.62905  1.0000
  H   H67       1.0  0.28378  0.80041  0.60453  1.0000
  C   C95       1.0  0.27628  0.00272  0.44794  1.0000
  C   C96       1.0  0.25980  0.98458  0.37004  1.0000
  C   C97       1.0  0.29263  0.55061  0.36655  1.0000
  N   N15       1.0  0.29208  0.53426  0.44233  1.0000
  O   O5        1.0  0.27938  0.98940  0.52699  1.0000
  C   C98       1.0  0.26930  0.99767  0.60992  1.0000
  H   H68       1.0  0.28423  0.02216  0.62642  1.0000
  H   H69       1.0  0.27067  0.98407  0.66666  1.0000
  H   H70       1.0  0.24533  0.99257  0.60435  1.0000
  C   C99       1.0  0.04039  0.76662  0.44912  1.0000
  C   C100      1.0  0.05869  0.78390  0.37224  1.0000
  C   C101      1.0  0.49258  0.75082  0.36807  1.0000
  N   N16       1.0  0.50886  0.75079  0.44325  1.0000
  O   O6        1.0  0.05331  0.76258  0.52760  1.0000
  C   C102      1.0  0.04531  0.77260  0.61124  1.0000
  H   H71       1.0  0.05104  0.79678  0.60697  1.0000
  H   H72       1.0  0.02073  0.75807  0.62731  1.0000
  C   C103      1.0  0.77594  0.28269  0.29347  1.0000
  N   N17       1.0  0.79135  0.26660  0.29405  1.0000
  H   H73       1.0  0.77660  0.29410  0.23419  1.0000
  H   H74       1.0  0.75047  0.27551  0.00287  1.0000
  C   C104      1.0  0.76078  0.50196  0.29132  1.0000
  N   N18       1.0  0.77655  0.03349  0.29202  1.0000
  H   H75       1.0  0.74909  0.49113  0.23247  1.0000
  C   C105      1.0  0.54124  0.28356  0.29436  1.0000
  N   N19       1.0  0.00972  0.26760  0.29456  1.0000
  H   H76       1.0  0.55194  0.29586  0.23626  1.0000
  H   H77       1.0  0.55859  0.27050  0.00102  1.0000
  N   N20       1.0  0.69275  0.35075  0.36635  1.0000
  C   C106      1.0  0.70942  0.33426  0.36769  1.0000
  C   C107      1.0  0.70939  0.38395  0.36770  1.0000
  C   C108      1.0  0.65956  0.33404  0.36801  1.0000
  C   C109      1.0  0.64209  0.32028  0.28746  1.0000
  C   C110      1.0  0.60938  0.30363  0.28933  1.0000
  C   C111      1.0  0.59234  0.30060  0.37109  1.0000
  C   C112      1.0  0.61028  0.31523  0.45085  1.0000
  C   C113      1.0  0.64294  0.33091  0.44997  1.0000
  C   C114      1.0  0.72666  0.33507  0.44600  1.0000
  C   C115      1.0  0.74334  0.31904  0.44745  1.0000
  C   C116      1.0  0.74324  0.30100  0.37149  1.0000
  C   C117      1.0  0.72601  0.30059  0.29295  1.0000
  C   C118      1.0  0.70970  0.31697  0.29083  1.0000
  C   C119      1.0  0.72635  0.40110  0.28988  1.0000
  C   C120      1.0  0.74285  0.43384  0.29076  1.0000
  C   C121      1.0  0.74307  0.45104  0.36922  1.0000
  C   C122      1.0  0.72570  0.43349  0.44647  1.0000
  C   C123      1.0  0.70967  0.40083  0.44631  1.0000
  H   H78       1.0  0.75630  0.32141  0.50462  1.0000
  H   H79       1.0  0.72738  0.34772  0.50248  1.0000
  H   H80       1.0  0.69797  0.31619  0.23221  1.0000
  H   H81       1.0  0.72479  0.28789  0.23603  1.0000
  H   H82       1.0  0.65317  0.32230  0.22636  1.0000
  H   H83       1.0  0.59810  0.29339  0.22935  1.0000
  H   H84       1.0  0.72683  0.38967  0.23184  1.0000
  H   H85       1.0  0.75523  0.44509  0.23315  1.0000
  H   H86       1.0  0.72390  0.44431  0.50398  1.0000
  H   H87       1.0  0.69810  0.38946  0.50460  1.0000
  H   H88       1.0  0.65456  0.34021  0.51014  1.0000
  H   H89       1.0  0.59983  0.31532  0.51120  1.0000
  N   N21       1.0  0.85925  0.18402  0.36557  1.0000
  C   C124      1.0  0.84262  0.20050  0.36598  1.0000
  C   C125      1.0  0.84269  0.15089  0.36628  1.0000
  C   C126      1.0  0.89238  0.20065  0.36619  1.0000
  C   C127      1.0  0.90948  0.21308  0.28420  1.0000
  C   C128      1.0  0.94219  0.22969  0.28486  1.0000
  C   C129      1.0  0.95928  0.23411  0.36726  1.0000
  C   C130      1.0  0.94185  0.22132  0.44913  1.0000
  C   C131      1.0  0.90917  0.20522  0.44875  1.0000
  C   C132      1.0  0.82686  0.20138  0.44583  1.0000
  C   C133      1.0  0.81046  0.21770  0.44671  1.0000
  C   C134      1.0  0.80905  0.23386  0.36784  1.0000
  C   C135      1.0  0.82484  0.23263  0.28789  1.0000
  C   C136      1.0  0.84118  0.21628  0.28690  1.0000
  C   C137      1.0  0.82669  0.13397  0.28705  1.0000
  C   C138      1.0  0.81033  0.10125  0.28702  1.0000
  C   C139      1.0  0.80926  0.08396  0.36617  1.0000
  C   C140      1.0  0.82529  0.10125  0.44552  1.0000
  C   C141      1.0  0.84154  0.13394  0.44568  1.0000
  H   H90       1.0  0.79955  0.21767  0.50652  1.0000
  H   H91       1.0  0.82741  0.19017  0.50429  1.0000
  H   H92       1.0  0.85193  0.21580  0.22743  1.0000
  H   H93       1.0  0.82461  0.24370  0.22869  1.0000
  H   H94       1.0  0.89812  0.20993  0.22295  1.0000
  H   H95       1.0  0.95344  0.23817  0.22351  1.0000
  H   H96       1.0  0.82699  0.14554  0.22841  1.0000
  H   H97       1.0  0.79918  0.09013  0.22774  1.0000
  H   H98       1.0  0.82525  0.09020  0.50504  1.0000
  H   H99       1.0  0.85239  0.14534  0.50485  1.0000
  H   H100      1.0  0.89760  0.19698  0.50970  1.0000
  H   H101      1.0  0.95283  0.22401  0.51095  1.0000
  C   C142      1.0  0.76196  0.26808  0.45093  1.0000
  C   C143      1.0  0.76007  0.28428  0.37267  1.0000
  C   C144      1.0  0.79258  0.25074  0.36889  1.0000
  N   N22       1.0  0.77734  0.25191  0.44529  1.0000
  O   O7        1.0  0.74606  0.26564  0.53055  1.0000
  C   C145      1.0  0.76504  0.27646  0.61214  1.0000
  H   H102      1.0  0.77480  0.26174  0.62906  1.0000
  H   H103      1.0  0.78379  0.30041  0.60453  1.0000
  C   C146      1.0  0.77628  0.50272  0.44794  1.0000
  C   C147      1.0  0.75980  0.48458  0.37004  1.0000
  C   C148      1.0  0.79263  0.05061  0.36655  1.0000
  N   N23       1.0  0.79208  0.03425  0.44233  1.0000
  O   O8        1.0  0.77938  0.48940  0.52699  1.0000
  C   C149      1.0  0.76929  0.49767  0.60992  1.0000
  H   H104      1.0  0.78423  0.52216  0.62642  1.0000
  H   H105      1.0  0.77067  0.48407  0.66666  1.0000
  H   H106      1.0  0.74533  0.49257  0.60436  1.0000
  C   C150      1.0  0.54039  0.26662  0.44912  1.0000
  C   C151      1.0  0.55869  0.28390  0.37224  1.0000
  C   C152      1.0  0.99258  0.25082  0.36807  1.0000
  N   N24       1.0  0.00886  0.25079  0.44325  1.0000
  O   O9        1.0  0.55331  0.26258  0.52760  1.0000
  C   C153      1.0  0.54531  0.27259  0.61124  1.0000
  H   H107      1.0  0.55104  0.29678  0.60697  1.0000
  H   H108      1.0  0.52073  0.25807  0.62731  1.0000
  C   C154      1.0  0.77594  0.78270  0.29347  1.0000
  N   N25       1.0  0.79135  0.76660  0.29405  1.0000
  H   H109      1.0  0.77660  0.79410  0.23419  1.0000
  H   H110      1.0  0.75047  0.77550  0.00287  1.0000
  C   C155      1.0  0.76078  0.00196  0.29132  1.0000
  N   N26       1.0  0.77655  0.53348  0.29202  1.0000
  H   H111      1.0  0.74909  0.99113  0.23247  1.0000
  C   C156      1.0  0.54124  0.78356  0.29436  1.0000
  N   N27       1.0  0.00972  0.76760  0.29456  1.0000
  H   H112      1.0  0.55195  0.79586  0.23626  1.0000
  H   H113      1.0  0.55859  0.77051  0.00102  1.0000
  N   N28       1.0  0.69275  0.85075  0.36635  1.0000
  C   C157      1.0  0.70942  0.83426  0.36769  1.0000
  C   C158      1.0  0.70939  0.88395  0.36770  1.0000
  C   C159      1.0  0.65956  0.83405  0.36801  1.0000
  C   C160      1.0  0.64210  0.82028  0.28746  1.0000
  C   C161      1.0  0.60938  0.80363  0.28933  1.0000
  C   C162      1.0  0.59234  0.80060  0.37109  1.0000
  C   C163      1.0  0.61028  0.81523  0.45085  1.0000
  C   C164      1.0  0.64294  0.83091  0.44997  1.0000
  C   C165      1.0  0.72666  0.83507  0.44600  1.0000
  C   C166      1.0  0.74334  0.81904  0.44745  1.0000
  C   C167      1.0  0.74324  0.80100  0.37149  1.0000
  C   C168      1.0  0.72601  0.80059  0.29295  1.0000
  C   C169      1.0  0.70970  0.81697  0.29083  1.0000
  C   C170      1.0  0.72635  0.90110  0.28988  1.0000
  C   C171      1.0  0.74285  0.93384  0.29076  1.0000
  C   C172      1.0  0.74307  0.95104  0.36922  1.0000
  C   C173      1.0  0.72570  0.93349  0.44647  1.0000
  C   C174      1.0  0.70967  0.90083  0.44631  1.0000
  H   H114      1.0  0.75630  0.82141  0.50462  1.0000
  H   H115      1.0  0.72738  0.84772  0.50249  1.0000
  H   H116      1.0  0.69797  0.81619  0.23220  1.0000
  H   H117      1.0  0.72479  0.78789  0.23603  1.0000
  H   H118      1.0  0.65317  0.82230  0.22636  1.0000
  H   H119      1.0  0.59810  0.79339  0.22935  1.0000
  H   H120      1.0  0.72683  0.88967  0.23184  1.0000
  H   H121      1.0  0.75523  0.94509  0.23315  1.0000
  H   H122      1.0  0.72390  0.94431  0.50398  1.0000
  H   H123      1.0  0.69810  0.88946  0.50460  1.0000
  H   H124      1.0  0.65456  0.84021  0.51014  1.0000
  H   H125      1.0  0.59983  0.81532  0.51120  1.0000
  N   N29       1.0  0.85925  0.68402  0.36557  1.0000
  C   C175      1.0  0.84262  0.70050  0.36598  1.0000
  C   C176      1.0  0.84269  0.65089  0.36628  1.0000
  C   C177      1.0  0.89238  0.70065  0.36619  1.0000
  C   C178      1.0  0.90948  0.71308  0.28420  1.0000
  C   C179      1.0  0.94219  0.72969  0.28486  1.0000
  C   C180      1.0  0.95928  0.73411  0.36726  1.0000
  C   C181      1.0  0.94185  0.72132  0.44913  1.0000
  C   C182      1.0  0.90917  0.70522  0.44876  1.0000
  C   C183      1.0  0.82686  0.70138  0.44583  1.0000
  C   C184      1.0  0.81046  0.71770  0.44671  1.0000
  C   C185      1.0  0.80905  0.73385  0.36784  1.0000
  C   C186      1.0  0.82484  0.73263  0.28789  1.0000
  C   C187      1.0  0.84118  0.71628  0.28690  1.0000
  C   C188      1.0  0.82669  0.63397  0.28705  1.0000
  C   C189      1.0  0.81033  0.60125  0.28702  1.0000
  C   C190      1.0  0.80926  0.58396  0.36617  1.0000
  C   C191      1.0  0.82529  0.60125  0.44552  1.0000
  C   C192      1.0  0.84154  0.63394  0.44568  1.0000
  H   H126      1.0  0.79955  0.71767  0.50652  1.0000
  H   H127      1.0  0.82742  0.69017  0.50429  1.0000
  H   H128      1.0  0.85194  0.71580  0.22743  1.0000
  H   H129      1.0  0.82461  0.74370  0.22869  1.0000
  H   H130      1.0  0.89812  0.70993  0.22295  1.0000
  H   H131      1.0  0.95344  0.73817  0.22351  1.0000
  H   H132      1.0  0.82699  0.64554  0.22841  1.0000
  H   H133      1.0  0.79918  0.59013  0.22774  1.0000
  H   H134      1.0  0.82525  0.59020  0.50504  1.0000
  H   H135      1.0  0.85239  0.64534  0.50485  1.0000
  H   H136      1.0  0.89760  0.69698  0.50970  1.0000
  H   H137      1.0  0.95283  0.72401  0.51095  1.0000
  C   C193      1.0  0.76196  0.76808  0.45093  1.0000
  C   C194      1.0  0.76006  0.78428  0.37267  1.0000
  C   C195      1.0  0.79258  0.75074  0.36888  1.0000
  N   N30       1.0  0.77734  0.75191  0.44528  1.0000
  O   O10       1.0  0.74606  0.76564  0.53055  1.0000
  C   C196      1.0  0.76504  0.77646  0.61214  1.0000
  H   H138      1.0  0.77480  0.76174  0.62905  1.0000
  H   H139      1.0  0.78378  0.80041  0.60453  1.0000
  C   C197      1.0  0.77628  0.00272  0.44794  1.0000
  C   C198      1.0  0.75979  0.98458  0.37004  1.0000
  C   C199      1.0  0.79263  0.55061  0.36655  1.0000
  N   N31       1.0  0.79208  0.53426  0.44233  1.0000
  O   O11       1.0  0.77938  0.98940  0.52699  1.0000
  C   C200      1.0  0.76929  0.99767  0.60992  1.0000
  H   H140      1.0  0.78423  0.02216  0.62642  1.0000
  H   H141      1.0  0.77067  0.98407  0.66666  1.0000
  H   H142      1.0  0.74533  0.99257  0.60435  1.0000
  C   C201      1.0  0.54039  0.76662  0.44912  1.0000
  C   C202      1.0  0.55869  0.78390  0.37224  1.0000
  C   C203      1.0  0.99258  0.75082  0.36807  1.0000
  N   N32       1.0  0.00886  0.75079  0.44325  1.0000
  O   O12       1.0  0.55331  0.76258  0.52760  1.0000
  C   C204      1.0  0.54531  0.77260  0.61124  1.0000
  H   H143      1.0  0.55104  0.79678  0.60697  1.0000
  H   H144      1.0  0.52073  0.75807  0.62731  1.0000
