data_image0
_chemical_formula_structural       C3NOCH3C3H2CNHC3NOCH3C3H2CNHC6H2C6H2CNHCNH2C3NOCH3C3NOCH2CNHCNH2C3NOCH3C3NOCH2C3NOCH3C3NOCH3CNHC3HC6H3C6H3CNHCNHC3NOCH4C3NOCH3C3NOCH3CNHC3HC6H3C6H3CNHCNHC3NOCH4C3NOCH3C3NOCH3C3NOCH3CNHCNHCNHC6H3C6H3C6H3C6H3CNHCNHCNHC3NOCH3C3NOCH3C3NOCH3C3NOCH3C3NOCH3C3NOCH3CNHCNHCNHC6H3C6H3C6H3C6H3CNHCNHCNHC3NOCH3C3NOCH3C3NOCH3
_chemical_formula_sum              "C216 N48 O24 H144"
_cell_length_a       45.0266
_cell_length_b       45.0474
_cell_length_c       14.7905
_cell_angle_alpha    90
_cell_angle_beta     90
_cell_angle_gamma    119.989

_space_group_name_H-M_alt    "P 1"
_space_group_IT_number       1

loop_
  _space_group_symop_operation_xyz
  'x, y, z'

loop_
  _atom_site_type_symbol
  _atom_site_label
  _atom_site_symmetry_multiplicity
  _atom_site_fract_x
  _atom_site_fract_y
  _atom_site_fract_z
  _atom_site_occupancy
  C   C1        1.0  0.09982  0.05180  0.26580  1.0000
  C   C2        1.0  0.08103  0.04229  0.34783  1.0000
  C   C3        1.0  0.15282  0.07835  0.34797  1.0000
  N   N1        1.0  0.13486  0.06941  0.26927  1.0000
  O   O1        1.0  0.08192  0.04290  0.18549  1.0000
  C   C4        1.0  0.10072  0.05213  0.10192  1.0000
  H   H1        1.0  0.11678  0.07992  0.09602  1.0000
  H   H2        1.0  0.08240  0.04298  0.04623  1.0000
  H   H3        1.0  0.11660  0.04018  0.09643  1.0000
  C   C5        1.0  0.04448  0.02396  0.34974  1.0000
  C   C6        1.0  0.02596  0.04173  0.34955  1.0000
  C   C7        1.0  0.02607  0.48768  0.34961  1.0000
  H   H4        1.0  0.03925  0.47459  0.34886  1.0000
  H   H5        1.0  0.03906  0.06799  0.34880  1.0000
  C   C8        1.0  0.10017  0.05182  0.42896  1.0000
  N   N2        1.0  0.13503  0.06932  0.42693  1.0000
  H   H6        1.0  0.08811  0.04571  0.49033  1.0000
  C   C9        1.0  0.09982  0.55180  0.26580  1.0000
  C   C10       1.0  0.08103  0.54229  0.34783  1.0000
  C   C11       1.0  0.15282  0.57835  0.34797  1.0000
  N   N3        1.0  0.13486  0.56941  0.26927  1.0000
  O   O2        1.0  0.08191  0.54290  0.18549  1.0000
  C   C12       1.0  0.10072  0.55213  0.10192  1.0000
  H   H7        1.0  0.11678  0.57992  0.09602  1.0000
  H   H8        1.0  0.08240  0.54298  0.04623  1.0000
  H   H9        1.0  0.11660  0.54018  0.09643  1.0000
  C   C13       1.0  0.04448  0.52396  0.34974  1.0000
  C   C14       1.0  0.02596  0.54173  0.34955  1.0000
  C   C15       1.0  0.02607  0.98768  0.34961  1.0000
  H   H10       1.0  0.03925  0.97459  0.34886  1.0000
  H   H11       1.0  0.03906  0.56799  0.34880  1.0000
  C   C16       1.0  0.10017  0.55182  0.42896  1.0000
  N   N4        1.0  0.13503  0.56933  0.42693  1.0000
  H   H12       1.0  0.08811  0.54571  0.49033  1.0000
  C   C17       1.0  0.24383  0.09660  0.34635  1.0000
  C   C18       1.0  0.26134  0.13277  0.34544  1.0000
  C   C19       1.0  0.24369  0.15130  0.34556  1.0000
  C   C20       1.0  0.20745  0.13293  0.34646  1.0000
  C   C21       1.0  0.18912  0.09656  0.34736  1.0000
  C   C22       1.0  0.20758  0.07863  0.34745  1.0000
  H   H13       1.0  0.19440  0.14615  0.34673  1.0000
  H   H14       1.0  0.19463  0.05238  0.34856  1.0000
  C   C23       1.0  0.24383  0.59660  0.34635  1.0000
  C   C24       1.0  0.26134  0.63277  0.34544  1.0000
  C   C25       1.0  0.24369  0.65130  0.34556  1.0000
  C   C26       1.0  0.20745  0.63293  0.34646  1.0000
  C   C27       1.0  0.18912  0.59656  0.34736  1.0000
  C   C28       1.0  0.20758  0.57863  0.34745  1.0000
  H   H15       1.0  0.19440  0.64615  0.34673  1.0000
  H   H16       1.0  0.19463  0.55238  0.34856  1.0000
  C   C29       1.0  0.27969  0.07889  0.26679  1.0000
  N   N5        1.0  0.31048  0.08022  0.26823  1.0000
  H   H17       1.0  0.27094  0.08214  0.20585  1.0000
  C   C30       1.0  0.30944  0.23407  0.26660  1.0000
  N   N6        1.0  0.27998  0.20329  0.26814  1.0000
  H   H18       1.0  0.32142  0.24281  0.20566  1.0000
  H   H19       1.0  0.28769  0.14596  0.34527  1.0000
  C   C31       1.0  0.28091  0.08062  0.42986  1.0000
  C   C32       1.0  0.26426  0.08062  0.34847  1.0000
  C   C33       1.0  0.32634  0.07998  0.34611  1.0000
  N   N7        1.0  0.31160  0.08150  0.42485  1.0000
  O   O3        1.0  0.26838  0.08537  0.51033  1.0000
  C   C34       1.0  0.28563  0.08649  0.59313  1.0000
  H   H20       1.0  0.28600  0.06267  0.60343  1.0000
  H   H21       1.0  0.27172  0.08969  0.64909  1.0000
  H   H22       1.0  0.31182  0.10816  0.59333  1.0000
  C   C35       1.0  0.31003  0.23286  0.42975  1.0000
  C   C36       1.0  0.32660  0.24945  0.34826  1.0000
  C   C37       1.0  0.26393  0.18745  0.34607  1.0000
  N   N8        1.0  0.28022  0.20218  0.42476  1.0000
  O   O4        1.0  0.32732  0.24538  0.51020  1.0000
  C   C38       1.0  0.31120  0.22817  0.59302  1.0000
  H   H23       1.0  0.28702  0.22785  0.60332  1.0000
  H   H24       1.0  0.30666  0.20198  0.59326  1.0000
  C   C39       1.0  0.27969  0.57889  0.26679  1.0000
  N   N9        1.0  0.31048  0.58022  0.26823  1.0000
  H   H25       1.0  0.27094  0.58213  0.20585  1.0000
  C   C40       1.0  0.30944  0.73407  0.26660  1.0000
  N   N10       1.0  0.27998  0.70329  0.26814  1.0000
  H   H26       1.0  0.32143  0.74281  0.20566  1.0000
  H   H27       1.0  0.28769  0.64596  0.34527  1.0000
  C   C41       1.0  0.28091  0.58062  0.42986  1.0000
  C   C42       1.0  0.26426  0.58062  0.34847  1.0000
  C   C43       1.0  0.32634  0.57998  0.34611  1.0000
  N   N11       1.0  0.31160  0.58150  0.42485  1.0000
  O   O5        1.0  0.26838  0.58537  0.51033  1.0000
  C   C44       1.0  0.28563  0.58649  0.59313  1.0000
  H   H28       1.0  0.28600  0.56267  0.60343  1.0000
  H   H29       1.0  0.27172  0.58969  0.64909  1.0000
  H   H30       1.0  0.31182  0.60816  0.59333  1.0000
  C   C45       1.0  0.31003  0.73286  0.42975  1.0000
  C   C46       1.0  0.32660  0.74945  0.34826  1.0000
  C   C47       1.0  0.26392  0.68745  0.34607  1.0000
  N   N12       1.0  0.28022  0.70218  0.42476  1.0000
  O   O6        1.0  0.32732  0.74538  0.51020  1.0000
  C   C48       1.0  0.31120  0.72818  0.59302  1.0000
  H   H31       1.0  0.28702  0.72785  0.60332  1.0000
  H   H32       1.0  0.30666  0.70198  0.59326  1.0000
  C   C49       1.0  0.46198  0.05152  0.26583  1.0000
  C   C50       1.0  0.47135  0.04209  0.34785  1.0000
  C   C51       1.0  0.43547  0.07800  0.34801  1.0000
  N   N13       1.0  0.44446  0.06903  0.26931  1.0000
  O   O7        1.0  0.47095  0.04258  0.18551  1.0000
  C   C52       1.0  0.46170  0.05215  0.10195  1.0000
  H   H33       1.0  0.43390  0.04040  0.09603  1.0000
  H   H34       1.0  0.47087  0.04300  0.04625  1.0000
  H   H35       1.0  0.47364  0.07997  0.09649  1.0000
  C   C53       1.0  0.46220  0.41386  0.26582  1.0000
  C   C54       1.0  0.47156  0.43264  0.34786  1.0000
  C   C55       1.0  0.43575  0.36087  0.34799  1.0000
  N   N14       1.0  0.44474  0.37883  0.26929  1.0000
  O   O8        1.0  0.47115  0.43175  0.18552  1.0000
  C   C56       1.0  0.46163  0.41296  0.10194  1.0000
  H   H36       1.0  0.47341  0.39693  0.09607  1.0000
  H   H37       1.0  0.47078  0.43127  0.04626  1.0000
  H   H38       1.0  0.43380  0.39705  0.09643  1.0000
  C   C57       1.0  0.43481  0.20434  0.26679  1.0000
  N   N15       1.0  0.43360  0.23385  0.26827  1.0000
  H   H39       1.0  0.43171  0.19239  0.20585  1.0000
  C   C58       1.0  0.48966  0.02386  0.34974  1.0000
  C   C59       1.0  0.47189  0.48758  0.34960  1.0000
  C   C60       1.0  0.48977  0.46917  0.34976  1.0000
  H   H40       1.0  0.44562  0.47442  0.34887  1.0000
  C   C61       1.0  0.41722  0.15074  0.34625  1.0000
  C   C62       1.0  0.38103  0.13208  0.34534  1.0000
  C   C63       1.0  0.36250  0.09591  0.34559  1.0000
  C   C64       1.0  0.38088  0.07805  0.34657  1.0000
  C   C65       1.0  0.41727  0.09610  0.34740  1.0000
  C   C66       1.0  0.43520  0.13247  0.34742  1.0000
  H   H41       1.0  0.36766  0.05180  0.34690  1.0000
  H   H42       1.0  0.46146  0.14578  0.34849  1.0000
  H   H43       1.0  0.36782  0.14521  0.34516  1.0000
  C   C67       1.0  0.36303  0.26989  0.34623  1.0000
  C   C68       1.0  0.38172  0.25240  0.34541  1.0000
  C   C69       1.0  0.41790  0.27004  0.34563  1.0000
  C   C70       1.0  0.43575  0.30627  0.34659  1.0000
  C   C71       1.0  0.41768  0.32459  0.34736  1.0000
  C   C72       1.0  0.38129  0.30613  0.34734  1.0000
  H   H44       1.0  0.46201  0.31932  0.34697  1.0000
  H   H45       1.0  0.36796  0.31906  0.34836  1.0000
  H   H46       1.0  0.36859  0.22606  0.34527  1.0000
  C   C73       1.0  0.46176  0.05164  0.42898  1.0000
  N   N16       1.0  0.44434  0.06908  0.42697  1.0000
  H   H47       1.0  0.46778  0.04559  0.49036  1.0000
  C   C74       1.0  0.46199  0.41350  0.42898  1.0000
  N   N17       1.0  0.44460  0.37865  0.42694  1.0000
  H   H48       1.0  0.46799  0.42556  0.49036  1.0000
  C   C75       1.0  0.43323  0.20378  0.42981  1.0000
  C   C76       1.0  0.43317  0.18713  0.34832  1.0000
  C   C77       1.0  0.43388  0.24984  0.34634  1.0000
  N   N18       1.0  0.43233  0.23357  0.42501  1.0000
  O   O9        1.0  0.42841  0.18642  0.51016  1.0000
  C   C78       1.0  0.42734  0.20250  0.59309  1.0000
  H   H49       1.0  0.45121  0.22664  0.60348  1.0000
  H   H50       1.0  0.42409  0.18533  0.64893  1.0000
  H   H51       1.0  0.40571  0.20708  0.59341  1.0000
  H   H52       1.0  0.32833  0.24207  0.64896  1.0000
  C   C79       1.0  0.46198  0.55152  0.26583  1.0000
  C   C80       1.0  0.47135  0.54209  0.34785  1.0000
  C   C81       1.0  0.43547  0.57800  0.34801  1.0000
  N   N19       1.0  0.44446  0.56903  0.26931  1.0000
  O   O10       1.0  0.47095  0.54259  0.18551  1.0000
  C   C82       1.0  0.46170  0.55215  0.10195  1.0000
  H   H53       1.0  0.43390  0.54040  0.09603  1.0000
  H   H54       1.0  0.47087  0.54301  0.04625  1.0000
  H   H55       1.0  0.47364  0.57997  0.09649  1.0000
  C   C83       1.0  0.46220  0.91386  0.26582  1.0000
  C   C84       1.0  0.47156  0.93264  0.34786  1.0000
  C   C85       1.0  0.43575  0.86087  0.34799  1.0000
  N   N20       1.0  0.44474  0.87883  0.26929  1.0000
  O   O11       1.0  0.47115  0.93175  0.18552  1.0000
  C   C86       1.0  0.46163  0.91296  0.10194  1.0000
  H   H56       1.0  0.47341  0.89694  0.09607  1.0000
  H   H57       1.0  0.47078  0.93127  0.04626  1.0000
  H   H58       1.0  0.43380  0.89706  0.09643  1.0000
  C   C87       1.0  0.43481  0.70434  0.26679  1.0000
  N   N21       1.0  0.43360  0.73385  0.26827  1.0000
  H   H59       1.0  0.43171  0.69239  0.20585  1.0000
  C   C88       1.0  0.48966  0.52386  0.34974  1.0000
  C   C89       1.0  0.47189  0.98758  0.34960  1.0000
  C   C90       1.0  0.48977  0.96917  0.34976  1.0000
  H   H60       1.0  0.44562  0.97442  0.34887  1.0000
  C   C91       1.0  0.41721  0.65074  0.34625  1.0000
  C   C92       1.0  0.38103  0.63208  0.34534  1.0000
  C   C93       1.0  0.36250  0.59591  0.34559  1.0000
  C   C94       1.0  0.38088  0.57805  0.34657  1.0000
  C   C95       1.0  0.41727  0.59610  0.34740  1.0000
  C   C96       1.0  0.43520  0.63247  0.34742  1.0000
  H   H61       1.0  0.36766  0.55180  0.34690  1.0000
  H   H62       1.0  0.46146  0.64578  0.34849  1.0000
  H   H63       1.0  0.36782  0.64521  0.34516  1.0000
  C   C97       1.0  0.36303  0.76989  0.34623  1.0000
  C   C98       1.0  0.38172  0.75240  0.34541  1.0000
  C   C99       1.0  0.41790  0.77005  0.34563  1.0000
  C   C100      1.0  0.43575  0.80628  0.34659  1.0000
  C   C101      1.0  0.41768  0.82459  0.34736  1.0000
  C   C102      1.0  0.38129  0.80613  0.34734  1.0000
  H   H64       1.0  0.46201  0.81932  0.34697  1.0000
  H   H65       1.0  0.36796  0.81906  0.34836  1.0000
  H   H66       1.0  0.36859  0.72606  0.34527  1.0000
  C   C103      1.0  0.46176  0.55164  0.42898  1.0000
  N   N22       1.0  0.44434  0.56908  0.42697  1.0000
  H   H67       1.0  0.46778  0.54559  0.49036  1.0000
  C   C104      1.0  0.46199  0.91350  0.42898  1.0000
  N   N23       1.0  0.44461  0.87866  0.42694  1.0000
  H   H68       1.0  0.46799  0.92556  0.49036  1.0000
  C   C105      1.0  0.43323  0.70378  0.42981  1.0000
  C   C106      1.0  0.43317  0.68714  0.34832  1.0000
  C   C107      1.0  0.43388  0.74984  0.34634  1.0000
  N   N24       1.0  0.43233  0.73357  0.42501  1.0000
  O   O12       1.0  0.42841  0.68642  0.51016  1.0000
  C   C108      1.0  0.42734  0.70250  0.59309  1.0000
  H   H69       1.0  0.45121  0.72664  0.60348  1.0000
  H   H70       1.0  0.42409  0.68533  0.64893  1.0000
  H   H71       1.0  0.40571  0.70708  0.59341  1.0000
  H   H72       1.0  0.32833  0.74207  0.64896  1.0000
  C   C109      1.0  0.59982  0.05180  0.26580  1.0000
  C   C110      1.0  0.58103  0.04229  0.34783  1.0000
  C   C111      1.0  0.65282  0.07835  0.34797  1.0000
  N   N25       1.0  0.63485  0.06941  0.26927  1.0000
  O   O13       1.0  0.58191  0.04290  0.18549  1.0000
  C   C112      1.0  0.60072  0.05213  0.10192  1.0000
  H   H73       1.0  0.61678  0.07992  0.09602  1.0000
  H   H74       1.0  0.58240  0.04298  0.04623  1.0000
  H   H75       1.0  0.61660  0.04018  0.09643  1.0000
  C   C113      1.0  0.96198  0.05152  0.26583  1.0000
  C   C114      1.0  0.97135  0.04209  0.34785  1.0000
  C   C115      1.0  0.93547  0.07800  0.34801  1.0000
  N   N26       1.0  0.94446  0.06903  0.26931  1.0000
  O   O14       1.0  0.97094  0.04258  0.18551  1.0000
  C   C116      1.0  0.96170  0.05215  0.10195  1.0000
  H   H76       1.0  0.93390  0.04040  0.09603  1.0000
  H   H77       1.0  0.97087  0.04300  0.04625  1.0000
  H   H78       1.0  0.97364  0.07997  0.09649  1.0000
  C   C117      1.0  0.96220  0.41386  0.26582  1.0000
  C   C118      1.0  0.97156  0.43264  0.34786  1.0000
  C   C119      1.0  0.93575  0.36087  0.34799  1.0000
  N   N27       1.0  0.94474  0.37883  0.26929  1.0000
  O   O15       1.0  0.97115  0.43175  0.18552  1.0000
  C   C120      1.0  0.96163  0.41296  0.10194  1.0000
  H   H79       1.0  0.97341  0.39693  0.09607  1.0000
  H   H80       1.0  0.97077  0.43127  0.04626  1.0000
  H   H81       1.0  0.93380  0.39705  0.09643  1.0000
  C   C121      1.0  0.77968  0.07889  0.26679  1.0000
  N   N28       1.0  0.81048  0.08022  0.26823  1.0000
  H   H82       1.0  0.77094  0.08214  0.20585  1.0000
  C   C122      1.0  0.93481  0.20434  0.26679  1.0000
  N   N29       1.0  0.93360  0.23385  0.26827  1.0000
  H   H83       1.0  0.93171  0.19239  0.20585  1.0000
  C   C123      1.0  0.80944  0.23407  0.26660  1.0000
  N   N30       1.0  0.77998  0.20329  0.26814  1.0000
  H   H84       1.0  0.82142  0.24281  0.20566  1.0000
  C   C124      1.0  0.54448  0.02396  0.34974  1.0000
  C   C125      1.0  0.52596  0.04173  0.34955  1.0000
  C   C126      1.0  0.98966  0.02386  0.34974  1.0000
  C   C127      1.0  0.97189  0.48758  0.34960  1.0000
  C   C128      1.0  0.98977  0.46917  0.34976  1.0000
  C   C129      1.0  0.52607  0.48768  0.34961  1.0000
  H   H85       1.0  0.94562  0.47442  0.34887  1.0000
  H   H86       1.0  0.53925  0.47459  0.34886  1.0000
  H   H87       1.0  0.53906  0.06799  0.34880  1.0000
  C   C130      1.0  0.74383  0.09660  0.34635  1.0000
  C   C131      1.0  0.76134  0.13277  0.34544  1.0000
  C   C132      1.0  0.74369  0.15130  0.34556  1.0000
  C   C133      1.0  0.70744  0.13293  0.34646  1.0000
  C   C134      1.0  0.68912  0.09656  0.34736  1.0000
  C   C135      1.0  0.70758  0.07863  0.34745  1.0000
  H   H88       1.0  0.69440  0.14615  0.34673  1.0000
  H   H89       1.0  0.69463  0.05238  0.34856  1.0000
  H   H90       1.0  0.78769  0.14596  0.34527  1.0000
  C   C136      1.0  0.91721  0.15074  0.34625  1.0000
  C   C137      1.0  0.88103  0.13208  0.34534  1.0000
  C   C138      1.0  0.86250  0.09591  0.34559  1.0000
  C   C139      1.0  0.88088  0.07805  0.34657  1.0000
  C   C140      1.0  0.91727  0.09610  0.34740  1.0000
  C   C141      1.0  0.93520  0.13247  0.34742  1.0000
  H   H91       1.0  0.86766  0.05180  0.34690  1.0000
  H   H92       1.0  0.96146  0.14578  0.34849  1.0000
  H   H93       1.0  0.86782  0.14521  0.34516  1.0000
  C   C142      1.0  0.86303  0.26989  0.34623  1.0000
  C   C143      1.0  0.88172  0.25240  0.34541  1.0000
  C   C144      1.0  0.91790  0.27004  0.34563  1.0000
  C   C145      1.0  0.93575  0.30627  0.34659  1.0000
  C   C146      1.0  0.91768  0.32459  0.34736  1.0000
  C   C147      1.0  0.88129  0.30613  0.34734  1.0000
  H   H94       1.0  0.96201  0.31932  0.34697  1.0000
  H   H95       1.0  0.86796  0.31906  0.34836  1.0000
  H   H96       1.0  0.86859  0.22606  0.34527  1.0000
  C   C148      1.0  0.60017  0.05182  0.42896  1.0000
  N   N31       1.0  0.63503  0.06932  0.42693  1.0000
  H   H97       1.0  0.58811  0.04571  0.49033  1.0000
  C   C149      1.0  0.96176  0.05164  0.42898  1.0000
  N   N32       1.0  0.94434  0.06908  0.42697  1.0000
  H   H98       1.0  0.96778  0.04559  0.49036  1.0000
  C   C150      1.0  0.96199  0.41350  0.42898  1.0000
  N   N33       1.0  0.94461  0.37865  0.42694  1.0000
  H   H99       1.0  0.96799  0.42556  0.49036  1.0000
  C   C151      1.0  0.78090  0.08062  0.42986  1.0000
  C   C152      1.0  0.76426  0.08062  0.34847  1.0000
  C   C153      1.0  0.82634  0.07998  0.34611  1.0000
  N   N34       1.0  0.81160  0.08150  0.42485  1.0000
  O   O16       1.0  0.76838  0.08537  0.51033  1.0000
  C   C154      1.0  0.78563  0.08649  0.59313  1.0000
  H   H100      1.0  0.78600  0.06267  0.60343  1.0000
  H   H101      1.0  0.77172  0.08969  0.64909  1.0000
  H   H102      1.0  0.81182  0.10816  0.59333  1.0000
  C   C155      1.0  0.93322  0.20378  0.42981  1.0000
  C   C156      1.0  0.93317  0.18713  0.34832  1.0000
  C   C157      1.0  0.93388  0.24984  0.34634  1.0000
  N   N35       1.0  0.93233  0.23357  0.42501  1.0000
  O   O17       1.0  0.92841  0.18642  0.51016  1.0000
  C   C158      1.0  0.92734  0.20250  0.59309  1.0000
  H   H103      1.0  0.95120  0.22664  0.60348  1.0000
  H   H104      1.0  0.92409  0.18533  0.64893  1.0000
  H   H105      1.0  0.90571  0.20708  0.59341  1.0000
  C   C159      1.0  0.81003  0.23286  0.42975  1.0000
  C   C160      1.0  0.82660  0.24945  0.34826  1.0000
  C   C161      1.0  0.76392  0.18745  0.34607  1.0000
  N   N36       1.0  0.78022  0.20218  0.42476  1.0000
  O   O18       1.0  0.82732  0.24538  0.51020  1.0000
  C   C162      1.0  0.81120  0.22817  0.59302  1.0000
  H   H106      1.0  0.78702  0.22785  0.60332  1.0000
  H   H107      1.0  0.82833  0.24207  0.64896  1.0000
  H   H108      1.0  0.80666  0.20198  0.59326  1.0000
  C   C163      1.0  0.59982  0.55180  0.26580  1.0000
  C   C164      1.0  0.58103  0.54229  0.34783  1.0000
  C   C165      1.0  0.65282  0.57835  0.34797  1.0000
  N   N37       1.0  0.63486  0.56941  0.26927  1.0000
  O   O19       1.0  0.58191  0.54290  0.18549  1.0000
  C   C166      1.0  0.60072  0.55213  0.10192  1.0000
  H   H109      1.0  0.61678  0.57992  0.09602  1.0000
  H   H110      1.0  0.58240  0.54298  0.04623  1.0000
  H   H111      1.0  0.61660  0.54018  0.09643  1.0000
  C   C167      1.0  0.96198  0.55152  0.26583  1.0000
  C   C168      1.0  0.97135  0.54209  0.34785  1.0000
  C   C169      1.0  0.93547  0.57800  0.34801  1.0000
  N   N38       1.0  0.94446  0.56903  0.26931  1.0000
  O   O20       1.0  0.97094  0.54259  0.18551  1.0000
  C   C170      1.0  0.96170  0.55215  0.10195  1.0000
  H   H112      1.0  0.93390  0.54040  0.09603  1.0000
  H   H113      1.0  0.97087  0.54301  0.04625  1.0000
  H   H114      1.0  0.97364  0.57997  0.09649  1.0000
  C   C171      1.0  0.96220  0.91386  0.26582  1.0000
  C   C172      1.0  0.97155  0.93264  0.34786  1.0000
  C   C173      1.0  0.93575  0.86087  0.34799  1.0000
  N   N39       1.0  0.94474  0.87883  0.26929  1.0000
  O   O21       1.0  0.97115  0.93175  0.18552  1.0000
  C   C174      1.0  0.96163  0.91296  0.10194  1.0000
  H   H115      1.0  0.97341  0.89694  0.09607  1.0000
  H   H116      1.0  0.97077  0.93127  0.04626  1.0000
  H   H117      1.0  0.93380  0.89706  0.09643  1.0000
  C   C175      1.0  0.77968  0.57889  0.26679  1.0000
  N   N40       1.0  0.81048  0.58022  0.26823  1.0000
  H   H118      1.0  0.77094  0.58213  0.20585  1.0000
  C   C176      1.0  0.93481  0.70434  0.26679  1.0000
  N   N41       1.0  0.93360  0.73385  0.26827  1.0000
  H   H119      1.0  0.93170  0.69239  0.20585  1.0000
  C   C177      1.0  0.80944  0.73407  0.26660  1.0000
  N   N42       1.0  0.77998  0.70329  0.26814  1.0000
  H   H120      1.0  0.82142  0.74281  0.20566  1.0000
  C   C178      1.0  0.54448  0.52396  0.34974  1.0000
  C   C179      1.0  0.52596  0.54173  0.34955  1.0000
  C   C180      1.0  0.98966  0.52386  0.34974  1.0000
  C   C181      1.0  0.97189  0.98758  0.34960  1.0000
  C   C182      1.0  0.98977  0.96917  0.34976  1.0000
  C   C183      1.0  0.52607  0.98768  0.34961  1.0000
  H   H121      1.0  0.94561  0.97442  0.34887  1.0000
  H   H122      1.0  0.53925  0.97459  0.34886  1.0000
  H   H123      1.0  0.53905  0.56799  0.34880  1.0000
  C   C184      1.0  0.74383  0.59660  0.34635  1.0000
  C   C185      1.0  0.76134  0.63277  0.34544  1.0000
  C   C186      1.0  0.74369  0.65130  0.34556  1.0000
  C   C187      1.0  0.70744  0.63293  0.34646  1.0000
  C   C188      1.0  0.68912  0.59656  0.34736  1.0000
  C   C189      1.0  0.70758  0.57863  0.34745  1.0000
  H   H124      1.0  0.69440  0.64615  0.34673  1.0000
  H   H125      1.0  0.69463  0.55238  0.34856  1.0000
  H   H126      1.0  0.78769  0.64596  0.34527  1.0000
  C   C190      1.0  0.91721  0.65074  0.34625  1.0000
  C   C191      1.0  0.88103  0.63208  0.34534  1.0000
  C   C192      1.0  0.86250  0.59591  0.34559  1.0000
  C   C193      1.0  0.88088  0.57805  0.34657  1.0000
  C   C194      1.0  0.91727  0.59610  0.34740  1.0000
  C   C195      1.0  0.93520  0.63247  0.34742  1.0000
  H   H127      1.0  0.86766  0.55180  0.34690  1.0000
  H   H128      1.0  0.96146  0.64578  0.34849  1.0000
  H   H129      1.0  0.86782  0.64521  0.34516  1.0000
  C   C196      1.0  0.86303  0.76989  0.34623  1.0000
  C   C197      1.0  0.88172  0.75240  0.34541  1.0000
  C   C198      1.0  0.91790  0.77005  0.34563  1.0000
  C   C199      1.0  0.93575  0.80628  0.34659  1.0000
  C   C200      1.0  0.91767  0.82459  0.34736  1.0000
  C   C201      1.0  0.88129  0.80613  0.34734  1.0000
  H   H130      1.0  0.96201  0.81932  0.34697  1.0000
  H   H131      1.0  0.86796  0.81906  0.34836  1.0000
  H   H132      1.0  0.86859  0.72606  0.34527  1.0000
  C   C202      1.0  0.60017  0.55182  0.42896  1.0000
  N   N43       1.0  0.63503  0.56933  0.42693  1.0000
  H   H133      1.0  0.58811  0.54571  0.49033  1.0000
  C   C203      1.0  0.96176  0.55164  0.42898  1.0000
  N   N44       1.0  0.94434  0.56908  0.42697  1.0000
  H   H134      1.0  0.96778  0.54559  0.49036  1.0000
  C   C204      1.0  0.96199  0.91350  0.42898  1.0000
  N   N45       1.0  0.94461  0.87866  0.42694  1.0000
  H   H135      1.0  0.96799  0.92556  0.49036  1.0000
  C   C205      1.0  0.78091  0.58062  0.42986  1.0000
  C   C206      1.0  0.76426  0.58062  0.34847  1.0000
  C   C207      1.0  0.82634  0.57998  0.34611  1.0000
  N   N46       1.0  0.81160  0.58150  0.42485  1.0000
  O   O22       1.0  0.76838  0.58537  0.51033  1.0000
  C   C208      1.0  0.78563  0.58649  0.59313  1.0000
  H   H136      1.0  0.78600  0.56267  0.60343  1.0000
  H   H137      1.0  0.77172  0.58969  0.64909  1.0000
  H   H138      1.0  0.81182  0.60816  0.59333  1.0000
  C   C209      1.0  0.93322  0.70378  0.42981  1.0000
  C   C210      1.0  0.93317  0.68714  0.34832  1.0000
  C   C211      1.0  0.93388  0.74984  0.34634  1.0000
  N   N47       1.0  0.93233  0.73357  0.42501  1.0000
  O   O23       1.0  0.92841  0.68642  0.51016  1.0000
  C   C212      1.0  0.92734  0.70250  0.59309  1.0000
  H   H139      1.0  0.95120  0.72664  0.60348  1.0000
  H   H140      1.0  0.92409  0.68533  0.64893  1.0000
  H   H141      1.0  0.90571  0.70708  0.59341  1.0000
  C   C213      1.0  0.81003  0.73286  0.42975  1.0000
  C   C214      1.0  0.82660  0.74945  0.34826  1.0000
  C   C215      1.0  0.76392  0.68745  0.34607  1.0000
  N   N48       1.0  0.78022  0.70218  0.42476  1.0000
  O   O24       1.0  0.82732  0.74538  0.51020  1.0000
  C   C216      1.0  0.81120  0.72818  0.59302  1.0000
  H   H142      1.0  0.78702  0.72785  0.60332  1.0000
  H   H143      1.0  0.82833  0.74207  0.64896  1.0000
  H   H144      1.0  0.80666  0.70198  0.59326  1.0000
