data_image0
_chemical_formula_structural       C3NH2C2HC3NHCHC4NC2NCHCHC4NC2NCHCHC2H6C2H6C2H6C2H6C2H6C2H6C24H15C24H15C24H15C24H15C24H15C24H15CH3C2H6C2H6C4NC2NCHCHC4NC2NCHCHC4NC2NCHCHC4NC2NCHCHC4NC2NCHCHC4NC2NCHCH
_chemical_formula_sum              "C234 N18 H162"
_cell_length_a       61.5521
_cell_length_b       61.5522
_cell_length_c       14.9823
_cell_angle_alpha    90
_cell_angle_beta     90
_cell_angle_gamma    120

_space_group_name_H-M_alt    "P 1"
_space_group_IT_number       1

loop_
  _space_group_symop_operation_xyz
  'x, y, z'

loop_
  _atom_site_type_symbol
  _atom_site_label
  _atom_site_symmetry_multiplicity
  _atom_site_fract_x
  _atom_site_fract_y
  _atom_site_fract_z
  _atom_site_occupancy
  C   C1        1.0  0.01454  0.50743  0.24895  1.0000
  C   C2        1.0  0.01548  0.50495  0.08863  1.0000
  C   C3        1.0  0.01341  0.51035  0.40996  1.0000
  N   N1        1.0  0.02676  0.51259  0.16945  1.0000
  H   H1        1.0  0.02209  0.51581  0.47053  1.0000
  H   H2        1.0  0.02706  0.52409  0.63251  1.0000
  C   C4        1.0  0.02775  0.51572  0.33091  1.0000
  C   C5        1.0  0.03167  0.51263  0.00864  1.0000
  H   H3        1.0  0.02886  0.49612  0.63858  1.0000
  C   C6        1.0  0.97374  0.48820  0.32680  1.0000
  C   C7        1.0  0.98788  0.49367  0.24692  1.0000
  C   C8        1.0  0.98893  0.49039  0.08698  1.0000
  N   N2        1.0  0.97661  0.48568  0.16611  1.0000
  H   H4        1.0  0.05150  0.52370  0.02647  1.0000
  C   C9        1.0  0.97327  0.47981  0.00644  1.0000
  H   H5        1.0  0.96125  0.45959  0.01438  1.0000
  C   C10       1.0  0.51326  0.48580  0.32688  1.0000
  C   C11       1.0  0.50783  0.49449  0.24696  1.0000
  C   C12       1.0  0.49409  0.50740  0.24894  1.0000
  C   C13       1.0  0.48578  0.51233  0.33086  1.0000
  N   N3        1.0  0.48897  0.51449  0.16943  1.0000
  C   C14       1.0  0.49663  0.51087  0.08864  1.0000
  C   C15       1.0  0.51116  0.49884  0.08704  1.0000
  N   N4        1.0  0.51584  0.49122  0.16619  1.0000
  C   C16       1.0  0.48899  0.51940  0.00862  1.0000
  H   H6        1.0  0.47794  0.52818  0.02640  1.0000
  C   C17       1.0  0.52176  0.49376  0.00654  1.0000
  H   H7        1.0  0.54199  0.50196  0.01454  1.0000
  C   C18       1.0  0.51561  0.02772  0.32673  1.0000
  C   C19       1.0  0.50695  0.01358  0.24687  1.0000
  C   C20       1.0  0.49405  0.98692  0.24895  1.0000
  C   C21       1.0  0.48912  0.97371  0.33093  1.0000
  N   N5        1.0  0.48699  0.97469  0.16947  1.0000
  C   C22       1.0  0.49063  0.98595  0.08862  1.0000
  C   C23       1.0  0.50263  0.01251  0.08693  1.0000
  N   N6        1.0  0.51023  0.02483  0.16604  1.0000
  C   C24       1.0  0.48212  0.96976  0.00866  1.0000
  H   H8        1.0  0.47336  0.94993  0.02652  1.0000
  C   C25       1.0  0.50771  0.02815  0.00636  1.0000
  H   H9        1.0  0.49950  0.04017  0.01426  1.0000
  C   C26       1.0  0.27170  0.52165  0.26051  1.0000
  C   C27       1.0  0.24913  0.52212  0.26339  1.0000
  H   H10       1.0  0.24009  0.52067  0.20453  1.0000
  H   H11       1.0  0.27822  0.51991  0.19974  1.0000
  H   H12       1.0  0.28501  0.52097  0.03710  1.0000
  H   H13       1.0  0.30229  0.55423  0.02626  1.0000
  H   H14       1.0  0.25787  0.54160  0.05676  1.0000
  H   H15       1.0  0.22824  0.52245  0.00685  1.0000
  C   C28       1.0  0.48035  0.75065  0.26141  1.0000
  C   C29       1.0  0.47979  0.72756  0.26404  1.0000
  H   H16       1.0  0.48137  0.72007  0.20511  1.0000
  H   H17       1.0  0.48223  0.75902  0.20078  1.0000
  H   H18       1.0  0.47960  0.76376  0.03825  1.0000
  H   H19       1.0  0.44639  0.74775  0.02585  1.0000
  H   H20       1.0  0.45920  0.71605  0.05692  1.0000
  H   H21       1.0  0.47833  0.70552  0.00719  1.0000
  C   C30       1.0  0.25106  0.72996  0.26101  1.0000
  C   C31       1.0  0.27415  0.75249  0.26388  1.0000
  H   H22       1.0  0.28176  0.76153  0.20503  1.0000
  H   H23       1.0  0.24280  0.72347  0.20023  1.0000
  H   H24       1.0  0.23713  0.71653  0.03760  1.0000
  H   H25       1.0  0.25303  0.69918  0.02648  1.0000
  H   H26       1.0  0.28490  0.74358  0.05717  1.0000
  H   H27       1.0  0.29549  0.77323  0.00734  1.0000
  C   C32       1.0  0.72960  0.47989  0.25680  1.0000
  C   C33       1.0  0.75218  0.47942  0.25899  1.0000
  H   H28       1.0  0.76116  0.48095  0.19989  1.0000
  H   H29       1.0  0.72300  0.48166  0.19627  1.0000
  H   H30       1.0  0.71674  0.47995  0.03365  1.0000
  H   H31       1.0  0.69952  0.44670  0.02243  1.0000
  H   H32       1.0  0.74400  0.45943  0.05205  1.0000
  H   H33       1.0  0.77356  0.47868  0.00177  1.0000
  C   C34       1.0  0.52159  0.25000  0.25677  1.0000
  C   C35       1.0  0.52198  0.27301  0.25907  1.0000
  H   H34       1.0  0.52045  0.28047  0.20002  1.0000
  H   H35       1.0  0.51982  0.24165  0.19620  1.0000
  H   H36       1.0  0.52149  0.23695  0.03361  1.0000
  H   H37       1.0  0.55474  0.25305  0.02245  1.0000
  H   H38       1.0  0.54192  0.28473  0.05216  1.0000
  H   H39       1.0  0.52264  0.29500  0.00191  1.0000
  C   C36       1.0  0.75152  0.27180  0.25688  1.0000
  C   C37       1.0  0.72848  0.24922  0.25910  1.0000
  H   H40       1.0  0.72106  0.24021  0.19998  1.0000
  H   H41       1.0  0.75993  0.27837  0.19641  1.0000
  H   H42       1.0  0.76424  0.28495  0.03378  1.0000
  H   H43       1.0  0.74816  0.30210  0.02208  1.0000
  H   H44       1.0  0.71649  0.25757  0.05202  1.0000
  H   H45       1.0  0.70619  0.22801  0.00179  1.0000
  C   C38       1.0  0.17543  0.60928  0.33874  1.0000
  C   C39       1.0  0.14893  0.59544  0.34062  1.0000
  C   C40       1.0  0.13545  0.56885  0.34585  1.0000
  C   C41       1.0  0.14943  0.55621  0.34880  1.0000
  C   C42       1.0  0.17595  0.56932  0.34599  1.0000
  C   C43       1.0  0.18845  0.59581  0.34328  1.0000
  C   C44       1.0  0.10853  0.55522  0.34411  1.0000
  C   C45       1.0  0.09430  0.56384  0.39117  1.0000
  C   C46       1.0  0.06792  0.55092  0.38704  1.0000
  C   C47       1.0  0.05459  0.52877  0.33583  1.0000
  C   C48       1.0  0.06871  0.51979  0.29049  1.0000
  C   C49       1.0  0.09509  0.53285  0.29390  1.0000
  C   C50       1.0  0.18914  0.63602  0.33046  1.0000
  C   C51       1.0  0.18409  0.65166  0.38555  1.0000
  C   C52       1.0  0.20003  0.67793  0.38521  1.0000
  C   C53       1.0  0.22147  0.68945  0.32952  1.0000
  C   C54       1.0  0.22560  0.67385  0.27081  1.0000
  C   C55       1.0  0.20968  0.64772  0.27087  1.0000
  C   C56       1.0  0.19014  0.55668  0.34158  1.0000
  C   C57       1.0  0.21016  0.56484  0.28001  1.0000
  C   C58       1.0  0.22588  0.55441  0.27948  1.0000
  C   C59       1.0  0.22207  0.53505  0.33954  1.0000
  C   C60       1.0  0.20139  0.52610  0.39863  1.0000
  C   C61       1.0  0.18562  0.53664  0.39935  1.0000
  H   H46       1.0  0.19646  0.68852  0.42899  1.0000
  H   H47       1.0  0.16971  0.64396  0.43076  1.0000
  H   H48       1.0  0.24118  0.68117  0.23093  1.0000
  H   H49       1.0  0.21395  0.63719  0.22930  1.0000
  H   H50       1.0  0.21398  0.57901  0.23595  1.0000
  H   H51       1.0  0.24090  0.56198  0.23690  1.0000
  H   H52       1.0  0.17154  0.53038  0.44565  1.0000
  H   H53       1.0  0.19798  0.51215  0.44318  1.0000
  H   H54       1.0  0.10440  0.52599  0.25744  1.0000
  H   H55       1.0  0.05990  0.50352  0.25435  1.0000
  H   H56       1.0  0.05851  0.55814  0.42088  1.0000
  H   H57       1.0  0.10305  0.57966  0.42966  1.0000
  H   H58       1.0  0.13932  0.60494  0.33411  1.0000
  H   H59       1.0  0.20766  0.60561  0.34481  1.0000
  H   H60       1.0  0.14017  0.53703  0.35137  1.0000
  C   C62       1.0  0.39238  0.56665  0.33825  1.0000
  C   C63       1.0  0.40618  0.55395  0.34023  1.0000
  C   C64       1.0  0.43277  0.56702  0.34553  1.0000
  C   C65       1.0  0.44545  0.59364  0.34852  1.0000
  C   C66       1.0  0.43238  0.60708  0.34559  1.0000
  C   C67       1.0  0.40589  0.59313  0.34275  1.0000
  C   C68       1.0  0.44636  0.55368  0.34387  1.0000
  C   C69       1.0  0.43769  0.53083  0.39089  1.0000
  C   C70       1.0  0.45059  0.51733  0.38684  1.0000
  C   C71       1.0  0.47276  0.52615  0.33573  1.0000
  C   C72       1.0  0.48178  0.54925  0.29043  1.0000
  C   C73       1.0  0.46875  0.56260  0.29377  1.0000
  C   C74       1.0  0.36563  0.55366  0.33002  1.0000
  C   C75       1.0  0.34998  0.53296  0.38507  1.0000
  C   C76       1.0  0.32371  0.52265  0.38475  1.0000
  C   C77       1.0  0.31221  0.53261  0.32912  1.0000
  C   C78       1.0  0.32782  0.55234  0.27044  1.0000
  C   C79       1.0  0.35395  0.56253  0.27050  1.0000
  C   C80       1.0  0.44506  0.63390  0.34128  1.0000
  C   C81       1.0  0.43704  0.64583  0.27942  1.0000
  C   C82       1.0  0.44747  0.67197  0.27917  1.0000
  C   C83       1.0  0.46672  0.68746  0.33967  1.0000
  C   C84       1.0  0.47557  0.67568  0.39893  1.0000
  C   C85       1.0  0.46500  0.64937  0.39951  1.0000
  H   H61       1.0  0.31311  0.50849  0.42851  1.0000
  H   H62       1.0  0.35767  0.52627  0.43025  1.0000
  H   H63       1.0  0.32050  0.56062  0.23063  1.0000
  H   H64       1.0  0.36448  0.57733  0.22895  1.0000
  H   H65       1.0  0.42292  0.63550  0.23516  1.0000
  H   H66       1.0  0.43999  0.67947  0.23639  1.0000
  H   H67       1.0  0.47118  0.64151  0.44595  1.0000
  H   H68       1.0  0.48943  0.68617  0.44384  1.0000
  H   H69       1.0  0.47563  0.57877  0.25734  1.0000
  H   H70       1.0  0.49806  0.55670  0.25438  1.0000
  H   H71       1.0  0.44333  0.50069  0.42062  1.0000
  H   H72       1.0  0.42186  0.52376  0.42929  1.0000
  H   H73       1.0  0.39665  0.53483  0.33373  1.0000
  H   H74       1.0  0.39612  0.60259  0.34419  1.0000
  H   H75       1.0  0.46463  0.60353  0.35121  1.0000
  C   C86       1.0  0.43504  0.82605  0.33910  1.0000
  C   C87       1.0  0.44769  0.85255  0.34101  1.0000
  C   C88       1.0  0.43457  0.86602  0.34610  1.0000
  C   C89       1.0  0.40795  0.85203  0.34905  1.0000
  C   C90       1.0  0.39455  0.82552  0.34628  1.0000
  C   C91       1.0  0.40855  0.81302  0.34357  1.0000
  C   C92       1.0  0.44787  0.89294  0.34429  1.0000
  C   C93       1.0  0.47070  0.90718  0.39137  1.0000
  C   C94       1.0  0.48416  0.93356  0.38719  1.0000
  C   C95       1.0  0.47533  0.94687  0.33590  1.0000
  C   C96       1.0  0.45224  0.93274  0.29054  1.0000
  C   C97       1.0  0.43893  0.90636  0.29399  1.0000
  C   C98       1.0  0.44808  0.81235  0.33094  1.0000
  C   C99       1.0  0.46872  0.81738  0.38628  1.0000
  C   C100      1.0  0.47905  0.80144  0.38602  1.0000
  C   C101      1.0  0.46924  0.78009  0.32995  1.0000
  C   C102      1.0  0.44956  0.77598  0.27103  1.0000
  C   C103      1.0  0.43933  0.79188  0.27107  1.0000
  C   C104      1.0  0.36773  0.81133  0.34196  1.0000
  C   C105      1.0  0.35583  0.79130  0.28041  1.0000
  C   C106      1.0  0.32968  0.77561  0.27994  1.0000
  C   C107      1.0  0.31417  0.77945  0.34005  1.0000
  C   C108      1.0  0.32591  0.80013  0.39907  1.0000
  C   C109      1.0  0.35223  0.81586  0.39981  1.0000
  H   H76       1.0  0.49317  0.80498  0.42995  1.0000
  H   H77       1.0  0.47532  0.83171  0.43167  1.0000
  H   H78       1.0  0.44135  0.76042  0.23102  1.0000
  H   H79       1.0  0.42454  0.78761  0.22943  1.0000
  H   H80       1.0  0.36618  0.78745  0.23641  1.0000
  H   H81       1.0  0.32221  0.76056  0.23745  1.0000
  H   H82       1.0  0.36006  0.82998  0.44595  1.0000
  H   H83       1.0  0.31540  0.80358  0.44360  1.0000
  H   H84       1.0  0.42276  0.89704  0.25757  1.0000
  H   H85       1.0  0.44478  0.94154  0.25437  1.0000
  H   H86       1.0  0.50079  0.94298  0.42102  1.0000
  H   H87       1.0  0.47778  0.89845  0.42991  1.0000
  H   H88       1.0  0.46681  0.86216  0.33445  1.0000
  H   H89       1.0  0.39915  0.79381  0.34507  1.0000
  H   H90       1.0  0.39803  0.86129  0.35159  1.0000
  C   C110      1.0  0.82645  0.39262  0.33259  1.0000
  C   C111      1.0  0.85296  0.40656  0.33327  1.0000
  C   C112      1.0  0.86627  0.43317  0.33576  1.0000
  C   C113      1.0  0.85227  0.44577  0.33800  1.0000
  C   C114      1.0  0.82575  0.43252  0.33745  1.0000
  C   C115      1.0  0.81335  0.40602  0.33663  1.0000
  C   C116      1.0  0.89312  0.44692  0.33323  1.0000
  C   C117      1.0  0.90747  0.43977  0.38677  1.0000
  C   C118      1.0  0.93387  0.45330  0.38451  1.0000
  C   C119      1.0  0.94693  0.47437  0.32804  1.0000
  C   C120      1.0  0.93267  0.48158  0.27454  1.0000
  C   C121      1.0  0.90627  0.46809  0.27705  1.0000
  C   C122      1.0  0.81279  0.36585  0.32562  1.0000
  C   C123      1.0  0.81786  0.35040  0.38164  1.0000
  C   C124      1.0  0.80200  0.32411  0.38196  1.0000
  C   C125      1.0  0.78065  0.31239  0.32590  1.0000
  C   C126      1.0  0.77645  0.32782  0.26655  1.0000
  C   C127      1.0  0.79227  0.35396  0.26605  1.0000
  C   C128      1.0  0.81145  0.44503  0.33383  1.0000
  C   C129      1.0  0.79112  0.43664  0.27350  1.0000
  C   C130      1.0  0.77531  0.44697  0.27400  1.0000
  C   C131      1.0  0.77932  0.46640  0.33397  1.0000
  C   C132      1.0  0.80022  0.47552  0.39202  1.0000
  C   C133      1.0  0.81610  0.46510  0.39166  1.0000
  H   H91       1.0  0.80563  0.31364  0.42606  1.0000
  H   H92       1.0  0.83228  0.35826  0.42666  1.0000
  H   H93       1.0  0.76087  0.32036  0.22659  1.0000
  H   H94       1.0  0.78794  0.36435  0.22397  1.0000
  H   H95       1.0  0.78719  0.42239  0.22962  1.0000
  H   H96       1.0  0.76014  0.43931  0.23213  1.0000
  H   H97       1.0  0.83040  0.47151  0.43709  1.0000
  H   H98       1.0  0.80376  0.48953  0.43647  1.0000
  H   H99       1.0  0.89672  0.47377  0.23628  1.0000
  H   H100      1.0  0.94140  0.49698  0.23396  1.0000
  H   H101      1.0  0.94350  0.44743  0.42412  1.0000
  H   H102      1.0  0.89881  0.42483  0.42937  1.0000
  H   H103      1.0  0.86270  0.39715  0.32773  1.0000
  H   H104      1.0  0.79414  0.39615  0.33926  1.0000
  H   H105      1.0  0.86152  0.46497  0.33873  1.0000
  C   C134      1.0  0.60881  0.43406  0.33267  1.0000
  C   C135      1.0  0.59488  0.44663  0.33339  1.0000
  C   C136      1.0  0.56827  0.43334  0.33588  1.0000
  C   C137      1.0  0.55566  0.40674  0.33815  1.0000
  C   C138      1.0  0.56890  0.39346  0.33756  1.0000
  C   C139      1.0  0.59541  0.40756  0.33674  1.0000
  C   C140      1.0  0.55452  0.44644  0.33336  1.0000
  C   C141      1.0  0.56166  0.46792  0.38694  1.0000
  C   C142      1.0  0.54815  0.48081  0.38466  1.0000
  C   C143      1.0  0.52708  0.47281  0.32816  1.0000
  C   C144      1.0  0.51987  0.45134  0.27463  1.0000
  C   C145      1.0  0.53336  0.43843  0.27715  1.0000
  C   C146      1.0  0.63558  0.44715  0.32567  1.0000
  C   C147      1.0  0.65104  0.46772  0.38152  1.0000
  C   C148      1.0  0.67734  0.47816  0.38178  1.0000
  C   C149      1.0  0.68905  0.46848  0.32588  1.0000
  C   C150      1.0  0.67361  0.44879  0.26678  1.0000
  C   C151      1.0  0.64746  0.43849  0.26621  1.0000
  C   C152      1.0  0.55639  0.36665  0.33395  1.0000
  C   C153      1.0  0.56477  0.35471  0.27364  1.0000
  C   C154      1.0  0.55444  0.32857  0.27415  1.0000
  C   C155      1.0  0.53499  0.31315  0.33407  1.0000
  C   C156      1.0  0.52587  0.32493  0.39208  1.0000
  C   C157      1.0  0.53631  0.35124  0.39178  1.0000
  H   H106      1.0  0.68781  0.49231  0.42575  1.0000
  H   H107      1.0  0.64319  0.47431  0.42643  1.0000
  H   H108      1.0  0.68106  0.44068  0.22677  1.0000
  H   H109      1.0  0.63707  0.42376  0.22420  1.0000
  H   H110      1.0  0.57903  0.36502  0.22980  1.0000
  H   H111      1.0  0.56210  0.32104  0.23232  1.0000
  H   H112      1.0  0.52990  0.35913  0.43719  1.0000
  H   H113      1.0  0.51187  0.31447  0.43659  1.0000
  H   H114      1.0  0.52768  0.42321  0.23633  1.0000
  H   H115      1.0  0.50448  0.44469  0.23401  1.0000
  H   H116      1.0  0.55400  0.49629  0.42432  1.0000
  H   H117      1.0  0.57660  0.47420  0.42956  1.0000
  H   H118      1.0  0.60429  0.46578  0.32777  1.0000
  H   H119      1.0  0.60527  0.39821  0.33937  1.0000
  H   H120      1.0  0.53646  0.39679  0.33885  1.0000
  C   C158      1.0  0.56742  0.17503  0.33243  1.0000
  C   C159      1.0  0.55483  0.14852  0.33315  1.0000
  C   C160      1.0  0.56811  0.13519  0.33564  1.0000
  C   C161      1.0  0.59470  0.14916  0.33791  1.0000
  C   C162      1.0  0.60800  0.17568  0.33730  1.0000
  C   C163      1.0  0.59392  0.18811  0.33647  1.0000
  C   C164      1.0  0.55499  0.10834  0.33311  1.0000
  C   C165      1.0  0.53349  0.09400  0.38666  1.0000
  C   C166      1.0  0.52059  0.06761  0.38436  1.0000
  C   C167      1.0  0.52859  0.05453  0.32793  1.0000
  C   C168      1.0  0.55007  0.06878  0.27444  1.0000
  C   C169      1.0  0.56300  0.09517  0.27696  1.0000
  C   C170      1.0  0.55434  0.18871  0.32549  1.0000
  C   C171      1.0  0.53376  0.18360  0.38134  1.0000
  C   C172      1.0  0.52333  0.19947  0.38165  1.0000
  C   C173      1.0  0.53302  0.22086  0.32580  1.0000
  C   C174      1.0  0.55270  0.22511  0.26669  1.0000
  C   C175      1.0  0.56302  0.20929  0.26614  1.0000
  C   C176      1.0  0.63480  0.18996  0.33368  1.0000
  C   C177      1.0  0.64675  0.21025  0.27324  1.0000
  C   C178      1.0  0.67289  0.22606  0.27374  1.0000
  C   C179      1.0  0.68830  0.22210  0.33396  1.0000
  C   C180      1.0  0.67651  0.20122  0.39212  1.0000
  C   C181      1.0  0.65021  0.18534  0.39172  1.0000
  H   H121      1.0  0.50918  0.19578  0.42560  1.0000
  H   H122      1.0  0.52716  0.16915  0.42620  1.0000
  H   H123      1.0  0.56081  0.24068  0.22668  1.0000
  H   H124      1.0  0.57773  0.21361  0.22403  1.0000
  H   H125      1.0  0.63645  0.21418  0.22928  1.0000
  H   H126      1.0  0.68041  0.24124  0.23188  1.0000
  H   H127      1.0  0.64230  0.17106  0.43722  1.0000
  H   H128      1.0  0.68697  0.19772  0.43674  1.0000
  H   H129      1.0  0.57823  0.10472  0.23618  1.0000
  H   H130      1.0  0.55674  0.06004  0.23391  1.0000
  H   H131      1.0  0.50510  0.05799  0.42399  1.0000
  H   H132      1.0  0.52721  0.10267  0.42920  1.0000
  H   H133      1.0  0.53568  0.13879  0.32754  1.0000
  H   H134      1.0  0.60328  0.20731  0.33909  1.0000
  H   H135      1.0  0.60464  0.13990  0.33863  1.0000
  C   C182      1.0  0.98704  0.49701  0.40790  1.0000
  H   H136      1.0  0.97752  0.49396  0.46662  1.0000
  H   H137      1.0  0.98444  0.48310  0.61313  1.0000
  H   H138      1.0  0.96146  0.48823  0.66406  1.0000
  C   C183      1.0  0.49111  0.50332  0.40994  1.0000
  C   C184      1.0  0.50443  0.49028  0.40793  1.0000
  H   H139      1.0  0.50745  0.48379  0.46668  1.0000
  H   H140      1.0  0.48562  0.50653  0.47048  1.0000
  H   H141      1.0  0.47753  0.50334  0.63245  1.0000
  H   H142      1.0  0.50552  0.53309  0.63861  1.0000
  H   H143      1.0  0.51850  0.50165  0.61320  1.0000
  H   H144      1.0  0.51334  0.47353  0.66416  1.0000
  C   C185      1.0  0.49809  0.98807  0.40997  1.0000
  C   C186      1.0  0.51111  0.01443  0.40785  1.0000
  H   H145      1.0  0.51759  0.02396  0.46657  1.0000
  H   H146      1.0  0.49487  0.97940  0.47055  1.0000
  H   H147      1.0  0.49819  0.97435  0.63253  1.0000
  H   H148      1.0  0.46842  0.97255  0.63857  1.0000
  H   H149      1.0  0.49982  0.01698  0.61307  1.0000
  H   H150      1.0  0.52793  0.03996  0.66398  1.0000
  C   C187      1.0  0.24042  0.52725  0.34367  1.0000
  C   C188      1.0  0.25372  0.52903  0.42329  1.0000
  C   C189      1.0  0.27646  0.52833  0.42036  1.0000
  C   C190      1.0  0.28642  0.52591  0.33797  1.0000
  N   N7        1.0  0.28885  0.53144  0.49859  1.0000
  C   C191      1.0  0.28095  0.53464  0.57956  1.0000
  C   C192      1.0  0.25836  0.53548  0.58252  1.0000
  N   N8        1.0  0.24620  0.53292  0.50415  1.0000
  C   C193      1.0  0.29618  0.53651  0.65848  1.0000
  H   H151      1.0  0.31284  0.53556  0.63967  1.0000
  C   C194      1.0  0.24676  0.53893  0.66365  1.0000
  H   H152      1.0  0.24460  0.55536  0.65562  1.0000
  C   C195      1.0  0.47449  0.71360  0.34409  1.0000
  C   C196      1.0  0.47251  0.72497  0.42377  1.0000
  C   C197      1.0  0.47323  0.74843  0.42106  1.0000
  C   C198      1.0  0.47590  0.76098  0.33885  1.0000
  N   N9        1.0  0.46986  0.75755  0.49924  1.0000
  C   C199      1.0  0.46641  0.74629  0.58001  1.0000
  C   C200      1.0  0.46559  0.72287  0.58279  1.0000
  N   N10       1.0  0.46838  0.71342  0.50443  1.0000
  C   C201      1.0  0.46423  0.75946  0.65892  1.0000
  H   H153      1.0  0.46521  0.77710  0.64027  1.0000
  C   C202      1.0  0.46192  0.70766  0.66372  1.0000
  H   H154      1.0  0.44545  0.68913  0.65519  1.0000
  C   C203      1.0  0.28800  0.76115  0.34416  1.0000
  C   C204      1.0  0.27647  0.74785  0.42375  1.0000
  C   C205      1.0  0.25299  0.72516  0.42080  1.0000
  C   C206      1.0  0.24056  0.71523  0.33843  1.0000
  N   N11       1.0  0.24370  0.71275  0.49901  1.0000
  C   C207      1.0  0.25482  0.72059  0.57996  1.0000
  C   C208      1.0  0.27829  0.74314  0.58295  1.0000
  N   N12       1.0  0.28790  0.75532  0.50460  1.0000
  C   C209      1.0  0.24145  0.70535  0.65884  1.0000
  H   H155      1.0  0.22381  0.68873  0.64002  1.0000
  C   C210      1.0  0.29337  0.75469  0.66407  1.0000
  H   H156      1.0  0.31192  0.75677  0.65598  1.0000
  C   C211      1.0  0.76099  0.47421  0.33884  1.0000
  C   C212      1.0  0.74778  0.47231  0.41879  1.0000
  C   C213      1.0  0.72499  0.47294  0.41652  1.0000
  C   C214      1.0  0.71490  0.47542  0.33448  1.0000
  N   N13       1.0  0.71267  0.46969  0.49500  1.0000
  C   C215      1.0  0.72068  0.46644  0.57565  1.0000
  C   C216      1.0  0.74332  0.46567  0.57796  1.0000
  N   N14       1.0  0.75541  0.46836  0.49932  1.0000
  C   C217      1.0  0.70553  0.46444  0.65495  1.0000
  H   H157      1.0  0.68882  0.46536  0.63667  1.0000
  C   C218      1.0  0.75505  0.46218  0.65867  1.0000
  H   H158      1.0  0.75724  0.44578  0.65015  1.0000
  C   C219      1.0  0.52717  0.28700  0.33900  1.0000
  C   C220      1.0  0.52910  0.27569  0.41888  1.0000
  C   C221      1.0  0.52852  0.25230  0.41652  1.0000
  C   C222      1.0  0.52608  0.23979  0.33440  1.0000
  N   N15       1.0  0.53177  0.24321  0.49498  1.0000
  C   C223      1.0  0.53500  0.25447  0.57566  1.0000
  C   C224      1.0  0.53572  0.27784  0.57804  1.0000
  N   N16       1.0  0.53302  0.28725  0.49944  1.0000
  C   C225      1.0  0.53701  0.24131  0.65493  1.0000
  H   H159      1.0  0.53614  0.22370  0.63658  1.0000
  C   C226      1.0  0.53917  0.29303  0.65881  1.0000
  H   H160      1.0  0.55554  0.31163  0.65037  1.0000
  C   C227      1.0  0.71444  0.24045  0.33889  1.0000
  C   C228      1.0  0.72571  0.25370  0.41883  1.0000
  C   C229      1.0  0.74911  0.27651  0.41654  1.0000
  C   C230      1.0  0.76169  0.28654  0.33449  1.0000
  N   N17       1.0  0.75814  0.28887  0.49498  1.0000
  C   C231      1.0  0.74683  0.28088  0.57560  1.0000
  C   C232      1.0  0.72345  0.25823  0.57792  1.0000
  N   N18       1.0  0.71409  0.24610  0.49931  1.0000
  C   C233      1.0  0.75992  0.29609  0.65487  1.0000
  H   H161      1.0  0.77755  0.31282  0.63657  1.0000
  C   C234      1.0  0.70820  0.24652  0.65861  1.0000
  H   H162      1.0  0.68963  0.24433  0.65000  1.0000
