data_image0
_chemical_formula_structural       C2NCHC3H2CHC6HCHCNCHC2NHC3NHC4NC2NH2C4NC2NH2CHC2H2CHC2H2C2H2C2H3C6H3C6H3C6H3C6H3C6H3CHC2H2C2H2C3NHC4NC2NH2C2NCHC4NC2NH2C4NC2NH2C4NC2NH2
_chemical_formula_sum              "C108 N18 H54"
_cell_length_a       30.6164
_cell_length_b       30.6164
_cell_length_c       14.7579
_cell_angle_alpha    90
_cell_angle_beta     90
_cell_angle_gamma    120

_space_group_name_H-M_alt    "P 1"
_space_group_IT_number       1

loop_
  _space_group_symop_operation_xyz
  'x, y, z'

loop_
  _atom_site_type_symbol
  _atom_site_label
  _atom_site_symmetry_multiplicity
  _atom_site_fract_x
  _atom_site_fract_y
  _atom_site_fract_z
  _atom_site_occupancy
  C   C1        1.0  0.03917  0.52164  0.26596  1.0000
  C   C2        1.0  0.06644  0.53529  0.34853  1.0000
  N   N1        1.0  0.06333  0.53374  0.18449  1.0000
  C   C3        1.0  0.03877  0.52145  0.10388  1.0000
  H   H1        1.0  0.05862  0.53139  0.04457  1.0000
  C   C4        1.0  0.14737  0.61573  0.34944  1.0000
  C   C5        1.0  0.12026  0.56221  0.35001  1.0000
  C   C6        1.0  0.14737  0.53580  0.34964  1.0000
  H   H2        1.0  0.12821  0.63520  0.34976  1.0000
  H   H3        1.0  0.12821  0.49717  0.35014  1.0000
  C   C7        1.0  0.03886  0.52147  0.43054  1.0000
  H   H4        1.0  0.05744  0.53077  0.49136  1.0000
  C   C8        1.0  0.20070  0.56212  0.34859  1.0000
  C   C9        1.0  0.22656  0.61536  0.34846  1.0000
  C   C10       1.0  0.20070  0.64274  0.34856  1.0000
  C   C11       1.0  0.23004  0.53824  0.35120  1.0000
  C   C12       1.0  0.23007  0.69599  0.35072  1.0000
  C   C13       1.0  0.25391  0.53744  0.26954  1.0000
  H   H5        1.0  0.24083  0.54254  0.20880  1.0000
  C   C14       1.0  0.25379  0.72070  0.26908  1.0000
  H   H6        1.0  0.24052  0.70256  0.20836  1.0000
  C   C15       1.0  0.25449  0.53906  0.43339  1.0000
  N   N2        1.0  0.23614  0.54400  0.51459  1.0000
  C   C16       1.0  0.25929  0.54792  0.59494  1.0000
  H   H7        1.0  0.24391  0.55157  0.65387  1.0000
  C   C17       1.0  0.25451  0.71944  0.43305  1.0000
  C   C18       1.0  0.25935  0.71535  0.59460  1.0000
  N   N3        1.0  0.23618  0.69616  0.51425  1.0000
  H   H8        1.0  0.24398  0.69632  0.65352  1.0000
  C   C19       1.0  0.95807  0.48104  0.34847  1.0000
  C   C20       1.0  0.98537  0.49471  0.26593  1.0000
  C   C21       1.0  0.98582  0.49494  0.10385  1.0000
  N   N4        1.0  0.96124  0.48264  0.18443  1.0000
  H   H9        1.0  0.96599  0.48502  0.04452  1.0000
  C   C22       1.0  0.53943  0.48117  0.34852  1.0000
  C   C23       1.0  0.52579  0.49480  0.26595  1.0000
  C   C24       1.0  0.49890  0.52171  0.26593  1.0000
  C   C25       1.0  0.48526  0.53537  0.34847  1.0000
  N   N5        1.0  0.48682  0.53376  0.18443  1.0000
  C   C26       1.0  0.49909  0.52146  0.10384  1.0000
  C   C27       1.0  0.52557  0.49498  0.10387  1.0000
  N   N6        1.0  0.53785  0.48271  0.18447  1.0000
  H   H10       1.0  0.48917  0.53137  0.04451  1.0000
  H   H11       1.0  0.53548  0.48505  0.04455  1.0000
  C   C28       1.0  0.53946  0.06239  0.34853  1.0000
  C   C29       1.0  0.52579  0.03510  0.26598  1.0000
  C   C30       1.0  0.49887  0.98130  0.26599  1.0000
  C   C31       1.0  0.48524  0.95402  0.34856  1.0000
  N   N7        1.0  0.48678  0.95715  0.18451  1.0000
  C   C32       1.0  0.49906  0.98171  0.10392  1.0000
  C   C33       1.0  0.52555  0.03466  0.10390  1.0000
  N   N8        1.0  0.53785  0.05923  0.18449  1.0000
  H   H12       1.0  0.48912  0.96187  0.04460  1.0000
  H   H13       1.0  0.53547  0.05449  0.04457  1.0000
  C   C34       1.0  0.29996  0.53752  0.26950  1.0000
  H   H14       1.0  0.31810  0.54253  0.20873  1.0000
  C   C35       1.0  0.48314  0.72066  0.26943  1.0000
  C   C36       1.0  0.48314  0.76667  0.26940  1.0000
  H   H15       1.0  0.47794  0.77975  0.20875  1.0000
  H   H16       1.0  0.47792  0.70242  0.20872  1.0000
  C   C37       1.0  0.29980  0.76670  0.26906  1.0000
  H   H17       1.0  0.31791  0.77990  0.20831  1.0000
  C   C38       1.0  0.77070  0.47904  0.26934  1.0000
  C   C39       1.0  0.72475  0.47915  0.26917  1.0000
  H   H18       1.0  0.70659  0.47408  0.20842  1.0000
  H   H19       1.0  0.78390  0.47402  0.20865  1.0000
  C   C40       1.0  0.54151  0.29589  0.26949  1.0000
  C   C41       1.0  0.54163  0.24994  0.26947  1.0000
  H   H20       1.0  0.54666  0.23683  0.20869  1.0000
  H   H21       1.0  0.54658  0.31408  0.20876  1.0000
  C   C42       1.0  0.72475  0.24971  0.26925  1.0000
  C   C43       1.0  0.77070  0.29578  0.26929  1.0000
  H   H22       1.0  0.78387  0.31402  0.20861  1.0000
  H   H23       1.0  0.70651  0.23665  0.20855  1.0000
  H   H24       1.0  0.26531  0.63474  0.34878  1.0000
  C   C44       1.0  0.45841  0.64279  0.34829  1.0000
  C   C45       1.0  0.40517  0.61540  0.34829  1.0000
  C   C46       1.0  0.37780  0.56216  0.34830  1.0000
  C   C47       1.0  0.40483  0.53585  0.34942  1.0000
  C   C48       1.0  0.45835  0.56227  0.34987  1.0000
  C   C49       1.0  0.48474  0.61579  0.34939  1.0000
  H   H25       1.0  0.38537  0.49722  0.34995  1.0000
  H   H26       1.0  0.52337  0.63527  0.34991  1.0000
  H   H27       1.0  0.38578  0.63476  0.34875  1.0000
  C   C50       1.0  0.37778  0.81975  0.34847  1.0000
  C   C51       1.0  0.40516  0.79389  0.34840  1.0000
  C   C52       1.0  0.45839  0.81974  0.34857  1.0000
  C   C53       1.0  0.48472  0.87308  0.34964  1.0000
  C   C54       1.0  0.45832  0.90020  0.35002  1.0000
  C   C55       1.0  0.40480  0.87309  0.34943  1.0000
  H   H28       1.0  0.52335  0.89223  0.35016  1.0000
  H   H29       1.0  0.38533  0.89225  0.34978  1.0000
  H   H30       1.0  0.38578  0.75514  0.34872  1.0000
  C   C56       1.0  0.82381  0.45422  0.34839  1.0000
  C   C57       1.0  0.79794  0.40098  0.34838  1.0000
  C   C58       1.0  0.82380  0.37360  0.34841  1.0000
  C   C59       1.0  0.87713  0.40061  0.34944  1.0000
  C   C60       1.0  0.90425  0.45413  0.34989  1.0000
  C   C61       1.0  0.87715  0.48054  0.34941  1.0000
  H   H31       1.0  0.89628  0.38113  0.34991  1.0000
  H   H32       1.0  0.89631  0.51917  0.34987  1.0000
  H   H33       1.0  0.75920  0.38161  0.34880  1.0000
  C   C62       1.0  0.56621  0.37371  0.34842  1.0000
  C   C63       1.0  0.61945  0.40107  0.34837  1.0000
  C   C64       1.0  0.64685  0.45432  0.34842  1.0000
  C   C65       1.0  0.61984  0.48065  0.34943  1.0000
  C   C66       1.0  0.56632  0.45425  0.34997  1.0000
  C   C67       1.0  0.53991  0.40073  0.34957  1.0000
  H   H34       1.0  0.63932  0.51928  0.34983  1.0000
  H   H35       1.0  0.50128  0.38127  0.35010  1.0000
  H   H36       1.0  0.63882  0.38170  0.34875  1.0000
  C   C68       1.0  0.64691  0.19667  0.34832  1.0000
  C   C69       1.0  0.61952  0.22252  0.34826  1.0000
  C   C70       1.0  0.56628  0.19665  0.34833  1.0000
  C   C71       1.0  0.53996  0.14332  0.34950  1.0000
  C   C72       1.0  0.56637  0.11621  0.34995  1.0000
  C   C73       1.0  0.61989  0.14333  0.34944  1.0000
  H   H37       1.0  0.50133  0.12416  0.35002  1.0000
  H   H38       1.0  0.63937  0.12418  0.34993  1.0000
  H   H39       1.0  0.63889  0.26127  0.34865  1.0000
  C   C74       1.0  0.98563  0.49483  0.43050  1.0000
  H   H40       1.0  0.96702  0.48551  0.49131  1.0000
  C   C75       1.0  0.49904  0.52159  0.43050  1.0000
  C   C76       1.0  0.52565  0.49497  0.43052  1.0000
  H   H41       1.0  0.53494  0.48568  0.49135  1.0000
  H   H42       1.0  0.48974  0.53090  0.49131  1.0000
  C   C77       1.0  0.49906  0.98160  0.43056  1.0000
  C   C78       1.0  0.52568  0.03482  0.43056  1.0000
  H   H43       1.0  0.53500  0.05342  0.49136  1.0000
  H   H44       1.0  0.48976  0.96300  0.49138  1.0000
  C   C79       1.0  0.32456  0.53823  0.35117  1.0000
  C   C80       1.0  0.30102  0.53904  0.43340  1.0000
  C   C81       1.0  0.30513  0.54794  0.59492  1.0000
  N   N9        1.0  0.32433  0.54400  0.51456  1.0000
  H   H45       1.0  0.32415  0.55157  0.65385  1.0000
  C   C82       1.0  0.48232  0.79041  0.35118  1.0000
  C   C83       1.0  0.48147  0.76610  0.43350  1.0000
  C   C84       1.0  0.48146  0.71955  0.43344  1.0000
  C   C85       1.0  0.48230  0.69603  0.35117  1.0000
  N   N10       1.0  0.47650  0.69622  0.51458  1.0000
  C   C86       1.0  0.47258  0.71543  0.59496  1.0000
  C   C87       1.0  0.47258  0.76126  0.59500  1.0000
  N   N11       1.0  0.47651  0.78444  0.51469  1.0000
  H   H46       1.0  0.46888  0.69636  0.65385  1.0000
  H   H47       1.0  0.46891  0.77661  0.65395  1.0000
  C   C88       1.0  0.30108  0.76598  0.43303  1.0000
  C   C89       1.0  0.32453  0.79040  0.35068  1.0000
  N   N12       1.0  0.32439  0.78431  0.51422  1.0000
  C   C90       1.0  0.30520  0.76116  0.59458  1.0000
  H   H48       1.0  0.32424  0.77654  0.65349  1.0000
  C   C91       1.0  0.70010  0.47823  0.35082  1.0000
  C   C92       1.0  0.72347  0.47729  0.43323  1.0000
  C   C93       1.0  0.77000  0.47724  0.43323  1.0000
  C   C94       1.0  0.79448  0.47812  0.35105  1.0000
  N   N13       1.0  0.78831  0.47226  0.51443  1.0000
  C   C95       1.0  0.76515  0.46832  0.59477  1.0000
  C   C96       1.0  0.71935  0.46837  0.59475  1.0000
  N   N14       1.0  0.70017  0.47235  0.51440  1.0000
  H   H49       1.0  0.78053  0.46468  0.65370  1.0000
  H   H50       1.0  0.70033  0.46476  0.65367  1.0000
  C   C97       1.0  0.54239  0.22599  0.35105  1.0000
  C   C98       1.0  0.54318  0.25037  0.43331  1.0000
  C   C99       1.0  0.54316  0.29690  0.43341  1.0000
  C   C100      1.0  0.54229  0.32047  0.35124  1.0000
  N   N15       1.0  0.54810  0.32018  0.51461  1.0000
  C   C101      1.0  0.55204  0.30094  0.59492  1.0000
  C   C102      1.0  0.55207  0.25513  0.59485  1.0000
  N   N16       1.0  0.54814  0.23201  0.51447  1.0000
  H   H51       1.0  0.55568  0.31995  0.65387  1.0000
  H   H52       1.0  0.55571  0.23972  0.65375  1.0000
  C   C103      1.0  0.79445  0.32034  0.35106  1.0000
  C   C104      1.0  0.77013  0.29689  0.43339  1.0000
  C   C105      1.0  0.72358  0.25034  0.43337  1.0000
  C   C106      1.0  0.70016  0.22601  0.35103  1.0000
  N   N17       1.0  0.70026  0.23198  0.51452  1.0000
  C   C107      1.0  0.71947  0.25514  0.59488  1.0000
  C   C108      1.0  0.76530  0.30097  0.59490  1.0000
  N   N18       1.0  0.78847  0.32020  0.51456  1.0000
  H   H53       1.0  0.70042  0.23977  0.65379  1.0000
  H   H54       1.0  0.78066  0.32001  0.65383  1.0000
