data_image0
_chemical_formula_structural       C4NC2NC2H2C4NC2NC2H2C4NC2NC2H2C2H2C2H2C2H2C2H2C2H2C2H2C2H2C2H2C2H2C2H2C2H2C2H2CNCNCNC18H12CNCNCNC18H12CNCNCNC18H12CNCNCNC18H12CNCNCNC18H12CNCNCNC18H12C2H2C2H2C2H2C2H2C2H2C2H2C4NC2NC2H2C4NC2NC2H2C4NC2NC2H2C4NC2NC2H2C4NC2NC2H2C4NC2NC2H2
_chemical_formula_sum              "C234 N36 H126"
_cell_length_a       60.353
_cell_length_b       60.353
_cell_length_c       15.0099
_cell_angle_alpha    90
_cell_angle_beta     90
_cell_angle_gamma    120

_space_group_name_H-M_alt    "P 1"
_space_group_IT_number       1

loop_
  _space_group_symop_operation_xyz
  'x, y, z'

loop_
  _atom_site_type_symbol
  _atom_site_label
  _atom_site_symmetry_multiplicity
  _atom_site_fract_x
  _atom_site_fract_y
  _atom_site_fract_z
  _atom_site_occupancy
  C   C1        1.0  0.02677  0.51472  0.31938  1.0000
  C   C2        1.0  0.01310  0.50165  0.24180  1.0000
  C   C3        1.0  0.98589  0.48805  0.24177  1.0000
  C   C4        1.0  0.97221  0.48744  0.31932  1.0000
  N   N1        1.0  0.97362  0.47636  0.16484  1.0000
  C   C5        1.0  0.98595  0.47693  0.08855  1.0000
  C   C6        1.0  0.01306  0.49048  0.08859  1.0000
  N   N2        1.0  0.02538  0.50224  0.16490  1.0000
  C   C7        1.0  0.97249  0.46461  0.01044  1.0000
  C   C8        1.0  0.02654  0.49164  0.01050  1.0000
  H   H1        1.0  0.95292  0.45484  0.00995  1.0000
  H   H2        1.0  0.04610  0.50143  0.01004  1.0000
  C   C9        1.0  0.48836  0.51774  0.31854  1.0000
  C   C10       1.0  0.48896  0.50458  0.24122  1.0000
  C   C11       1.0  0.50258  0.49098  0.24161  1.0000
  C   C12       1.0  0.51565  0.49048  0.31930  1.0000
  N   N3        1.0  0.50314  0.47917  0.16498  1.0000
  C   C13       1.0  0.49135  0.47960  0.08859  1.0000
  C   C14       1.0  0.47778  0.49314  0.08817  1.0000
  N   N4        1.0  0.47724  0.50502  0.16420  1.0000
  C   C15       1.0  0.49249  0.46716  0.01079  1.0000
  C   C16       1.0  0.46544  0.49416  0.00993  1.0000
  H   H3        1.0  0.50229  0.45740  0.01062  1.0000
  H   H4        1.0  0.45566  0.50394  0.00913  1.0000
  C   C17       1.0  0.48336  0.97433  0.31932  1.0000
  C   C18       1.0  0.49643  0.98792  0.24163  1.0000
  C   C19       1.0  0.51005  0.01513  0.24127  1.0000
  C   C20       1.0  0.51067  0.02889  0.31861  1.0000
  N   N5        1.0  0.52179  0.02731  0.16427  1.0000
  C   C21       1.0  0.52124  0.01489  0.08822  1.0000
  C   C22       1.0  0.50767  0.98778  0.08860  1.0000
  N   N6        1.0  0.49588  0.97555  0.16499  1.0000
  C   C23       1.0  0.53359  0.02825  0.00999  1.0000
  C   C24       1.0  0.50653  0.97421  0.01079  1.0000
  H   H5        1.0  0.54338  0.04782  0.00923  1.0000
  H   H6        1.0  0.49672  0.95464  0.01060  1.0000
  C   C25       1.0  0.25109  0.52650  0.25456  1.0000
  C   C26       1.0  0.27451  0.52679  0.25448  1.0000
  H   H7        1.0  0.28620  0.53423  0.20005  1.0000
  H   H8        1.0  0.24667  0.53386  0.20031  1.0000
  C   C27       1.0  0.23223  0.48789  0.05288  1.0000
  C   C28       1.0  0.25569  0.48813  0.05275  1.0000
  H   H9        1.0  0.22142  0.48303  0.10959  1.0000
  H   H10       1.0  0.26185  0.48345  0.10936  1.0000
  C   C29       1.0  0.47227  0.72797  0.25328  1.0000
  C   C30       1.0  0.47293  0.75156  0.25674  1.0000
  H   H11       1.0  0.46572  0.75660  0.20361  1.0000
  H   H12       1.0  0.46464  0.71680  0.19778  1.0000
  C   C31       1.0  0.51082  0.74225  0.05127  1.0000
  C   C32       1.0  0.51152  0.76591  0.05448  1.0000
  H   H13       1.0  0.51529  0.73546  0.10676  1.0000
  H   H14       1.0  0.51652  0.77626  0.11227  1.0000
  C   C33       1.0  0.27471  0.74816  0.25447  1.0000
  C   C34       1.0  0.25157  0.72475  0.25446  1.0000
  H   H15       1.0  0.24731  0.71305  0.20005  1.0000
  H   H16       1.0  0.28648  0.75256  0.20019  1.0000
  C   C35       1.0  0.25498  0.76715  0.05269  1.0000
  C   C36       1.0  0.23175  0.74370  0.05260  1.0000
  H   H17       1.0  0.26095  0.77797  0.10938  1.0000
  H   H18       1.0  0.22092  0.73755  0.10923  1.0000
  C   C37       1.0  0.74748  0.47277  0.25455  1.0000
  C   C38       1.0  0.72428  0.47294  0.25480  1.0000
  H   H19       1.0  0.71250  0.46554  0.20059  1.0000
  H   H20       1.0  0.75163  0.46520  0.20026  1.0000
  C   C39       1.0  0.76733  0.51147  0.05275  1.0000
  C   C40       1.0  0.74411  0.51169  0.05290  1.0000
  H   H21       1.0  0.77817  0.51614  0.10936  1.0000
  H   H22       1.0  0.73814  0.51653  0.10963  1.0000
  C   C41       1.0  0.52607  0.27814  0.25637  1.0000
  C   C42       1.0  0.52681  0.25525  0.25305  1.0000
  H   H23       1.0  0.53431  0.25161  0.19742  1.0000
  H   H24       1.0  0.53324  0.29038  0.20321  1.0000
  C   C43       1.0  0.48750  0.25391  0.05426  1.0000
  C   C44       1.0  0.48819  0.23094  0.05105  1.0000
  H   H25       1.0  0.48249  0.25925  0.11203  1.0000
  H   H26       1.0  0.48371  0.21968  0.10654  1.0000
  C   C45       1.0  0.72458  0.25176  0.25464  1.0000
  C   C46       1.0  0.74798  0.27494  0.25498  1.0000
  H   H27       1.0  0.75240  0.28674  0.20081  1.0000
  H   H28       1.0  0.71288  0.24766  0.20031  1.0000
  C   C47       1.0  0.74316  0.23176  0.05293  1.0000
  C   C48       1.0  0.76663  0.25496  0.05320  1.0000
  H   H29       1.0  0.73696  0.22091  0.10950  1.0000
  H   H30       1.0  0.77742  0.26089  0.10997  1.0000
  C   C49       1.0  0.17528  0.60733  0.34505  1.0000
  N   N7        1.0  0.14937  0.59403  0.33867  1.0000
  C   C50       1.0  0.13572  0.56800  0.33521  1.0000
  N   N8        1.0  0.14899  0.55520  0.33767  1.0000
  C   C51       1.0  0.17491  0.56751  0.34438  1.0000
  N   N9        1.0  0.18733  0.59345  0.34771  1.0000
  C   C52       1.0  0.10851  0.55471  0.33027  1.0000
  C   C53       1.0  0.09461  0.56765  0.34373  1.0000
  C   C54       1.0  0.06774  0.55452  0.34047  1.0000
  C   C55       1.0  0.05390  0.52803  0.32241  1.0000
  C   C56       1.0  0.06753  0.51495  0.30866  1.0000
  C   C57       1.0  0.09440  0.52808  0.31292  1.0000
  C   C58       1.0  0.18968  0.63456  0.34674  1.0000
  C   C59       1.0  0.17883  0.64981  0.32226  1.0000
  C   C60       1.0  0.19386  0.67672  0.31844  1.0000
  C   C61       1.0  0.22005  0.68900  0.34067  1.0000
  C   C62       1.0  0.23087  0.67405  0.36742  1.0000
  C   C63       1.0  0.21593  0.64730  0.37018  1.0000
  C   C64       1.0  0.18909  0.55447  0.34642  1.0000
  C   C65       1.0  0.21471  0.56725  0.37726  1.0000
  C   C66       1.0  0.22959  0.55538  0.37512  1.0000
  C   C67       1.0  0.21940  0.53031  0.34147  1.0000
  C   C68       1.0  0.19383  0.51718  0.31138  1.0000
  C   C69       1.0  0.17877  0.52903  0.31506  1.0000
  H   H31       1.0  0.18572  0.68719  0.29790  1.0000
  H   H32       1.0  0.16004  0.64144  0.30375  1.0000
  H   H33       1.0  0.24990  0.68247  0.38312  1.0000
  H   H34       1.0  0.22473  0.63727  0.38874  1.0000
  H   H35       1.0  0.22307  0.58558  0.40099  1.0000
  H   H36       1.0  0.24823  0.56553  0.39598  1.0000
  H   H37       1.0  0.16049  0.51924  0.29086  1.0000
  H   H38       1.0  0.18620  0.49915  0.28538  1.0000
  H   H39       1.0  0.10351  0.51784  0.30269  1.0000
  H   H40       1.0  0.05799  0.49567  0.29659  1.0000
  H   H41       1.0  0.05837  0.56452  0.35051  1.0000
  H   H42       1.0  0.10384  0.58683  0.35720  1.0000
  C   C70       1.0  0.39208  0.56932  0.34215  1.0000
  N   N10       1.0  0.40594  0.55728  0.33625  1.0000
  C   C71       1.0  0.43201  0.57034  0.33341  1.0000
  N   N11       1.0  0.44412  0.59638  0.33565  1.0000
  C   C72       1.0  0.43124  0.60945  0.34097  1.0000
  N   N12       1.0  0.40533  0.59527  0.34410  1.0000
  C   C73       1.0  0.44612  0.55724  0.32890  1.0000
  C   C74       1.0  0.43377  0.53059  0.31191  1.0000
  C   C75       1.0  0.44767  0.51764  0.30782  1.0000
  C   C76       1.0  0.47440  0.53091  0.32135  1.0000
  C   C77       1.0  0.48688  0.55741  0.33913  1.0000
  C   C78       1.0  0.47297  0.57038  0.34218  1.0000
  C   C79       1.0  0.36485  0.55598  0.34470  1.0000
  C   C80       1.0  0.34996  0.53042  0.31415  1.0000
  C   C81       1.0  0.32302  0.51822  0.31103  1.0000
  C   C82       1.0  0.31034  0.53115  0.34076  1.0000
  C   C83       1.0  0.32499  0.55635  0.37351  1.0000
  C   C84       1.0  0.35178  0.56854  0.37520  1.0000
  C   C85       1.0  0.44374  0.63671  0.34120  1.0000
  C   C86       1.0  0.42941  0.64921  0.35461  1.0000
  C   C87       1.0  0.44105  0.67594  0.35137  1.0000
  C   C88       1.0  0.46750  0.69118  0.33437  1.0000
  C   C89       1.0  0.48220  0.67916  0.32263  1.0000
  C   C90       1.0  0.47042  0.65225  0.32607  1.0000
  H   H43       1.0  0.31278  0.50010  0.28572  1.0000
  H   H44       1.0  0.35862  0.52075  0.29037  1.0000
  H   H45       1.0  0.31632  0.56634  0.39414  1.0000
  H   H46       1.0  0.36158  0.58695  0.39830  1.0000
  H   H47       1.0  0.41014  0.63904  0.36633  1.0000
  H   H48       1.0  0.42994  0.68417  0.36067  1.0000
  H   H49       1.0  0.48154  0.64411  0.31565  1.0000
  H   H50       1.0  0.50141  0.68985  0.31018  1.0000
  H   H51       1.0  0.48279  0.58958  0.35538  1.0000
  H   H52       1.0  0.50625  0.56755  0.34904  1.0000
  H   H53       1.0  0.43805  0.49834  0.29600  1.0000
  H   H54       1.0  0.41443  0.52022  0.30175  1.0000
  C   C91       1.0  0.43187  0.82663  0.34862  1.0000
  N   N13       1.0  0.44389  0.85249  0.34074  1.0000
  C   C92       1.0  0.43079  0.86544  0.33695  1.0000
  N   N14       1.0  0.40476  0.85151  0.34011  1.0000
  C   C93       1.0  0.39176  0.82560  0.34747  1.0000
  N   N15       1.0  0.40592  0.81386  0.35159  1.0000
  C   C94       1.0  0.44385  0.89263  0.33127  1.0000
  C   C95       1.0  0.47049  0.90689  0.31418  1.0000
  C   C96       1.0  0.48346  0.93374  0.30962  1.0000
  C   C97       1.0  0.47019  0.94722  0.32276  1.0000
  C   C98       1.0  0.44369  0.93323  0.34053  1.0000
  C   C99       1.0  0.43072  0.90636  0.34407  1.0000
  C   C100      1.0  0.44527  0.81287  0.35198  1.0000
  C   C101      1.0  0.46992  0.82263  0.31395  1.0000
  C   C102      1.0  0.48183  0.80763  0.31025  1.0000
  C   C103      1.0  0.46974  0.78287  0.34768  1.0000
  C   C104      1.0  0.44555  0.77337  0.38830  1.0000
  C   C105      1.0  0.43350  0.78810  0.39004  1.0000
  C   C106      1.0  0.36454  0.81088  0.34852  1.0000
  C   C107      1.0  0.35206  0.78464  0.37202  1.0000
  C   C108      1.0  0.32535  0.76940  0.36868  1.0000
  C   C109      1.0  0.31015  0.77989  0.34128  1.0000
  C   C110      1.0  0.32217  0.80606  0.31887  1.0000
  C   C111      1.0  0.34904  0.82139  0.32328  1.0000
  H   H55       1.0  0.49905  0.81464  0.27850  1.0000
  H   H56       1.0  0.47884  0.84022  0.28401  1.0000
  H   H57       1.0  0.43599  0.75519  0.41376  1.0000
  H   H58       1.0  0.41573  0.78021  0.41841  1.0000
  H   H59       1.0  0.36226  0.77606  0.39107  1.0000
  H   H60       1.0  0.31712  0.75039  0.38445  1.0000
  H   H61       1.0  0.35721  0.84017  0.30469  1.0000
  H   H62       1.0  0.31152  0.81397  0.29786  1.0000
  H   H63       1.0  0.41152  0.89700  0.35740  1.0000
  H   H64       1.0  0.43356  0.94249  0.35014  1.0000
  H   H65       1.0  0.50275  0.94339  0.29778  1.0000
  H   H66       1.0  0.48087  0.89791  0.30444  1.0000
  C   C112      1.0  0.82407  0.39208  0.34419  1.0000
  N   N16       1.0  0.84999  0.40569  0.33748  1.0000
  C   C113      1.0  0.86326  0.43176  0.33499  1.0000
  N   N17       1.0  0.84960  0.44414  0.33840  1.0000
  C   C114      1.0  0.82369  0.43152  0.34477  1.0000
  N   N18       1.0  0.81164  0.40559  0.34748  1.0000
  C   C115      1.0  0.89046  0.44568  0.33007  1.0000
  C   C116      1.0  0.90457  0.43316  0.31275  1.0000
  C   C117      1.0  0.93144  0.44690  0.30854  1.0000
  C   C118      1.0  0.94508  0.47362  0.32229  1.0000
  C   C119      1.0  0.93123  0.48626  0.34033  1.0000
  C   C120      1.0  0.90436  0.47252  0.34353  1.0000
  C   C121      1.0  0.80991  0.36486  0.34631  1.0000
  C   C122      1.0  0.82023  0.34975  0.31482  1.0000
  C   C123      1.0  0.80520  0.32283  0.31135  1.0000
  C   C124      1.0  0.77966  0.31037  0.34167  1.0000
  C   C125      1.0  0.76946  0.32524  0.37531  1.0000
  C   C126      1.0  0.78431  0.35200  0.37732  1.0000
  C   C127      1.0  0.80928  0.44435  0.34644  1.0000
  C   C128      1.0  0.78301  0.43082  0.36965  1.0000
  C   C129      1.0  0.76810  0.44266  0.36696  1.0000
  C   C130      1.0  0.77895  0.46846  0.34054  1.0000
  C   C131      1.0  0.80516  0.48237  0.31858  1.0000
  C   C132      1.0  0.82016  0.47047  0.32223  1.0000
  H   H67       1.0  0.81285  0.31244  0.28542  1.0000
  H   H68       1.0  0.83852  0.35824  0.29065  1.0000
  H   H69       1.0  0.75083  0.31674  0.39636  1.0000
  H   H70       1.0  0.77594  0.36196  0.40109  1.0000
  H   H71       1.0  0.77419  0.41198  0.38800  1.0000
  H   H72       1.0  0.74905  0.43205  0.38253  1.0000
  H   H73       1.0  0.83898  0.48091  0.30401  1.0000
  H   H74       1.0  0.81333  0.50102  0.29831  1.0000
  H   H75       1.0  0.89512  0.48247  0.35700  1.0000
  H   H76       1.0  0.94059  0.50564  0.35037  1.0000
  H   H77       1.0  0.94099  0.43717  0.29648  1.0000
  H   H78       1.0  0.89547  0.41382  0.30251  1.0000
  C   C133      1.0  0.60724  0.43333  0.34754  1.0000
  N   N19       1.0  0.59424  0.44624  0.34018  1.0000
  C   C134      1.0  0.56821  0.43415  0.33701  1.0000
  N   N20       1.0  0.55511  0.40810  0.34076  1.0000
  C   C135      1.0  0.56713  0.39426  0.34865  1.0000
  N   N21       1.0  0.59308  0.40743  0.35164  1.0000
  C   C136      1.0  0.55515  0.44827  0.33133  1.0000
  C   C137      1.0  0.56829  0.47514  0.34412  1.0000
  C   C138      1.0  0.55532  0.48905  0.34054  1.0000
  C   C139      1.0  0.52882  0.47653  0.32278  1.0000
  C   C140      1.0  0.51555  0.44978  0.30968  1.0000
  C   C141      1.0  0.52851  0.43589  0.31425  1.0000
  C   C142      1.0  0.63447  0.44584  0.34861  1.0000
  C   C143      1.0  0.64996  0.47186  0.32355  1.0000
  C   C144      1.0  0.67683  0.48341  0.31920  1.0000
  C   C145      1.0  0.68885  0.46924  0.34136  1.0000
  C   C146      1.0  0.67366  0.44355  0.36860  1.0000
  C   C147      1.0  0.64694  0.43205  0.37193  1.0000
  C   C148      1.0  0.55373  0.36709  0.35197  1.0000
  C   C149      1.0  0.56548  0.35409  0.39017  1.0000
  C   C150      1.0  0.55342  0.32731  0.38842  1.0000
  C   C151      1.0  0.52926  0.31263  0.34766  1.0000
  C   C152      1.0  0.51720  0.32530  0.31001  1.0000
  C   C153      1.0  0.52911  0.35221  0.31372  1.0000
  H   H79       1.0  0.68748  0.50198  0.29838  1.0000
  H   H80       1.0  0.64179  0.48247  0.30512  1.0000
  H   H81       1.0  0.68189  0.43275  0.38431  1.0000
  H   H82       1.0  0.63675  0.41327  0.39085  1.0000
  H   H83       1.0  0.58323  0.36397  0.41866  1.0000
  H   H84       1.0  0.56299  0.31870  0.41391  1.0000
  H   H85       1.0  0.52020  0.36088  0.28373  1.0000
  H   H86       1.0  0.50001  0.31509  0.27811  1.0000
  H   H87       1.0  0.51813  0.41654  0.30452  1.0000
  H   H88       1.0  0.49626  0.44015  0.29784  1.0000
  H   H89       1.0  0.56545  0.50843  0.35013  1.0000
  H   H90       1.0  0.58748  0.48498  0.35742  1.0000
  C   C154      1.0  0.56776  0.17771  0.34109  1.0000
  N   N22       1.0  0.55489  0.15176  0.33581  1.0000
  C   C155      1.0  0.56701  0.13784  0.33355  1.0000
  N   N23       1.0  0.59307  0.15086  0.33630  1.0000
  C   C156      1.0  0.60694  0.17677  0.34211  1.0000
  N   N24       1.0  0.59367  0.18945  0.34409  1.0000
  C   C157      1.0  0.55290  0.11063  0.32904  1.0000
  C   C158      1.0  0.52605  0.09692  0.34235  1.0000
  C   C159      1.0  0.51214  0.07004  0.33928  1.0000
  C   C160      1.0  0.52462  0.05602  0.32145  1.0000
  C   C161      1.0  0.55135  0.06948  0.30788  1.0000
  C   C162      1.0  0.56525  0.09634  0.31201  1.0000
  C   C163      1.0  0.55526  0.19247  0.34133  1.0000
  C   C164      1.0  0.52860  0.18135  0.32587  1.0000
  C   C165      1.0  0.51682  0.19648  0.32233  1.0000
  C   C166      1.0  0.53152  0.22319  0.33438  1.0000
  C   C167      1.0  0.55795  0.23438  0.35167  1.0000
  C   C168      1.0  0.56958  0.21928  0.35499  1.0000
  C   C169      1.0  0.63417  0.19067  0.34453  1.0000
  C   C170      1.0  0.64725  0.21640  0.37415  1.0000
  C   C171      1.0  0.67404  0.23098  0.37243  1.0000
  C   C172      1.0  0.68869  0.22034  0.34047  1.0000
  C   C173      1.0  0.67601  0.19464  0.31177  1.0000
  C   C174      1.0  0.64906  0.17991  0.31485  1.0000
  H   H91       1.0  0.49763  0.18798  0.30969  1.0000
  H   H92       1.0  0.51748  0.16209  0.31530  1.0000
  H   H93       1.0  0.56906  0.25372  0.36110  1.0000
  H   H94       1.0  0.58884  0.22838  0.36690  1.0000
  H   H95       1.0  0.63746  0.22507  0.39670  1.0000
  H   H96       1.0  0.68272  0.24970  0.39252  1.0000
  H   H97       1.0  0.64040  0.16151  0.29174  1.0000
  H   H98       1.0  0.68624  0.18668  0.28712  1.0000
  H   H99       1.0  0.58459  0.10530  0.30184  1.0000
  H   H100      1.0  0.56097  0.05981  0.29605  1.0000
  H   H101      1.0  0.49277  0.06080  0.34923  1.0000
  H   H102      1.0  0.51623  0.10629  0.35561  1.0000
  C   C175      1.0  0.98605  0.50102  0.39559  1.0000
  C   C176      1.0  0.01291  0.51445  0.39563  1.0000
  H   H103      1.0  0.02229  0.52364  0.45276  1.0000
  H   H104      1.0  0.97667  0.50083  0.45268  1.0000
  C   C177      1.0  0.98605  0.46577  0.59924  1.0000
  C   C178      1.0  0.01299  0.47925  0.59927  1.0000
  H   H105      1.0  0.97630  0.45682  0.54249  1.0000
  H   H106      1.0  0.02275  0.48005  0.54257  1.0000
  C   C179      1.0  0.51538  0.50413  0.39533  1.0000
  C   C180      1.0  0.50193  0.51755  0.39496  1.0000
  H   H107      1.0  0.50171  0.52677  0.45192  1.0000
  H   H108      1.0  0.52454  0.50398  0.45257  1.0000
  C   C181      1.0  0.48009  0.46820  0.59942  1.0000
  C   C182      1.0  0.46660  0.48166  0.59899  1.0000
  H   H109      1.0  0.48090  0.45919  0.54290  1.0000
  H   H110      1.0  0.45764  0.48238  0.54215  1.0000
  C   C183      1.0  0.49708  0.01512  0.39500  1.0000
  C   C184      1.0  0.48364  0.98826  0.39535  1.0000
  H   H111      1.0  0.47448  0.97894  0.45261  1.0000
  H   H112      1.0  0.49732  0.02456  0.45199  1.0000
  C   C185      1.0  0.53243  0.01460  0.59904  1.0000
  C   C186      1.0  0.51894  0.98766  0.59944  1.0000
  H   H113      1.0  0.54139  0.02428  0.54219  1.0000
  H   H114      1.0  0.51813  0.97784  0.54292  1.0000
  C   C187      1.0  0.28358  0.52082  0.33245  1.0000
  C   C188      1.0  0.26797  0.51306  0.40953  1.0000
  C   C189      1.0  0.24428  0.51282  0.40968  1.0000
  C   C190      1.0  0.23613  0.52035  0.33277  1.0000
  N   N25       1.0  0.23074  0.50691  0.48713  1.0000
  C   C191      1.0  0.23844  0.50075  0.56351  1.0000
  C   C192      1.0  0.26204  0.50099  0.56337  1.0000
  N   N26       1.0  0.27586  0.50736  0.48685  1.0000
  C   C193      1.0  0.22363  0.49430  0.64180  1.0000
  C   C194      1.0  0.27068  0.49479  0.64154  1.0000
  H   H115      1.0  0.20658  0.49409  0.64235  1.0000
  H   H116      1.0  0.28768  0.49491  0.64189  1.0000
  C   C195      1.0  0.47926  0.76583  0.33660  1.0000
  C   C196      1.0  0.48662  0.75678  0.41159  1.0000
  C   C197      1.0  0.48602  0.73294  0.40811  1.0000
  C   C198      1.0  0.47802  0.71801  0.32946  1.0000
  N   N27       1.0  0.49149  0.72422  0.48396  1.0000
  C   C199      1.0  0.49804  0.73739  0.56191  1.0000
  C   C200      1.0  0.49871  0.76119  0.56523  1.0000
  N   N28       1.0  0.49273  0.76969  0.49040  1.0000
  C   C201      1.0  0.50399  0.72791  0.63850  1.0000
  C   C202      1.0  0.50535  0.77536  0.64501  1.0000
  H   H117      1.0  0.50354  0.71076  0.63661  1.0000
  H   H118      1.0  0.50587  0.79255  0.64781  1.0000
  C   C203      1.0  0.23652  0.71572  0.33239  1.0000
  C   C204      1.0  0.24436  0.73137  0.40939  1.0000
  C   C205      1.0  0.26782  0.75505  0.40951  1.0000
  C   C206      1.0  0.28349  0.76314  0.33259  1.0000
  N   N29       1.0  0.27547  0.76860  0.48693  1.0000
  C   C207      1.0  0.26161  0.76092  0.56332  1.0000
  C   C208      1.0  0.23824  0.73733  0.56323  1.0000
  N   N30       1.0  0.23079  0.72350  0.48673  1.0000
  C   C209      1.0  0.26999  0.77574  0.64159  1.0000
  C   C210      1.0  0.22341  0.72871  0.64141  1.0000
  H   H119      1.0  0.28683  0.79278  0.64210  1.0000
  H   H120      1.0  0.20652  0.71171  0.64179  1.0000
  C   C211      1.0  0.71552  0.47919  0.33290  1.0000
  C   C212      1.0  0.73123  0.48678  0.40970  1.0000
  C   C213      1.0  0.75468  0.48656  0.40953  1.0000
  C   C214      1.0  0.76252  0.47877  0.33251  1.0000
  N   N31       1.0  0.76827  0.49225  0.48683  1.0000
  C   C215      1.0  0.76083  0.49863  0.56335  1.0000
  C   C216      1.0  0.73746  0.49885  0.56352  1.0000
  N   N32       1.0  0.72359  0.49268  0.48715  1.0000
  C   C217      1.0  0.77567  0.50483  0.64152  1.0000
  C   C218      1.0  0.72909  0.50528  0.64183  1.0000
  H   H121      1.0  0.79256  0.50471  0.64186  1.0000
  H   H122      1.0  0.71225  0.50548  0.64239  1.0000
  C   C219      1.0  0.52103  0.23954  0.32919  1.0000
  C   C220      1.0  0.51303  0.24644  0.40791  1.0000
  C   C221      1.0  0.51245  0.26970  0.41141  1.0000
  C   C222      1.0  0.51980  0.28608  0.33632  1.0000
  N   N33       1.0  0.50633  0.27649  0.49020  1.0000
  C   C223      1.0  0.50033  0.26200  0.56503  1.0000
  C   C224      1.0  0.50099  0.23887  0.56171  1.0000
  N   N34       1.0  0.50755  0.23225  0.48376  1.0000
  C   C225      1.0  0.49369  0.26953  0.64479  1.0000
  C   C226      1.0  0.49503  0.22344  0.63830  1.0000
  H   H123      1.0  0.49317  0.28620  0.64759  1.0000
  H   H124      1.0  0.49547  0.20673  0.63641  1.0000
  C   C227      1.0  0.76296  0.28367  0.33319  1.0000
  C   C228      1.0  0.75476  0.26795  0.40995  1.0000
  C   C229      1.0  0.73106  0.24453  0.40965  1.0000
  C   C230      1.0  0.71546  0.23670  0.33256  1.0000
  N   N35       1.0  0.72312  0.23092  0.48692  1.0000
  C   C231      1.0  0.73690  0.23832  0.56351  1.0000
  C   C232      1.0  0.76052  0.26167  0.56380  1.0000
  N   N36       1.0  0.76827  0.27555  0.48746  1.0000
  C   C233      1.0  0.72821  0.22347  0.64163  1.0000
  C   C234      1.0  0.77529  0.27000  0.64218  1.0000
  H   H125      1.0  0.71119  0.20660  0.64188  1.0000
  H   H126      1.0  0.79236  0.28682  0.64282  1.0000
