data_image0
_chemical_formula_structural       C2NC2HNHCHC2NC2HNHCHC2NC2HNHCHCNCNCN4CNCNCN4C2HC6H3CHC2HC6H3CHC2HC6H3CH
_chemical_formula_sum              "C48 N18 H24"
_cell_length_a       28.9991
_cell_length_b       28.9991
_cell_length_c       14.9955
_cell_angle_alpha    90
_cell_angle_beta     90
_cell_angle_gamma    120

_space_group_name_H-M_alt    "P 1"
_space_group_IT_number       1

loop_
  _space_group_symop_operation_xyz
  'x, y, z'

loop_
  _atom_site_type_symbol
  _atom_site_label
  _atom_site_symmetry_multiplicity
  _atom_site_fract_x
  _atom_site_fract_y
  _atom_site_fract_z
  _atom_site_occupancy
  C   C1        1.0  0.40876  0.54678  0.32853  1.0000
  C   C2        1.0  0.40881  0.51025  0.26627  1.0000
  N   N1        1.0  0.44410  0.49275  0.27445  1.0000
  C   C3        1.0  0.48042  0.50815  0.34147  1.0000
  C   C4        1.0  0.54998  0.43536  0.28482  1.0000
  H   H1        1.0  0.38284  0.49686  0.21374  1.0000
  N   N2        1.0  0.51597  0.45467  0.28386  1.0000
  H   H2        1.0  0.54736  0.41019  0.23480  1.0000
  C   C5        1.0  0.37274  0.56460  0.32054  1.0000
  H   H3        1.0  0.33539  0.53887  0.30298  1.0000
  C   C6        1.0  0.45359  0.86206  0.32856  1.0000
  C   C7        1.0  0.49013  0.89865  0.26633  1.0000
  N   N3        1.0  0.50762  0.95144  0.27454  1.0000
  C   C8        1.0  0.49221  0.97234  0.34157  1.0000
  C   C9        1.0  0.56502  0.11471  0.28503  1.0000
  H   H4        1.0  0.50353  0.88609  0.21380  1.0000
  N   N4        1.0  0.54571  0.06139  0.28402  1.0000
  H   H5        1.0  0.59021  0.13727  0.23505  1.0000
  C   C10       1.0  0.43576  0.80821  0.32054  1.0000
  H   H6        1.0  0.46149  0.79660  0.30294  1.0000
  C   C11       1.0  0.13832  0.59161  0.32866  1.0000
  C   C12       1.0  0.10175  0.59156  0.26640  1.0000
  N   N5        1.0  0.04896  0.55627  0.27457  1.0000
  C   C13       1.0  0.02803  0.51995  0.34159  1.0000
  C   C14       1.0  0.88568  0.45039  0.28495  1.0000
  H   H7        1.0  0.11432  0.61753  0.21386  1.0000
  N   N6        1.0  0.93900  0.48440  0.28398  1.0000
  H   H8        1.0  0.86314  0.45301  0.23494  1.0000
  C   C15       1.0  0.19217  0.62764  0.32068  1.0000
  H   H9        1.0  0.20378  0.66499  0.30310  1.0000
  C   C16       1.0  0.27920  0.64042  0.32951  1.0000
  N   N7        1.0  0.30581  0.61303  0.33008  1.0000
  C   C17       1.0  0.35995  0.63885  0.32936  1.0000
  N   N8        1.0  0.38734  0.69285  0.33000  1.0000
  C   C18       1.0  0.36152  0.72118  0.32938  1.0000
  N   N9        1.0  0.30752  0.69456  0.33009  1.0000
  N   N10       1.0  0.22668  0.61283  0.33330  1.0000
  N   N11       1.0  0.38645  0.77370  0.33318  1.0000
  N   N12       1.0  0.38755  0.61393  0.33316  1.0000
  C   C19       1.0  0.72128  0.36093  0.33855  1.0000
  N   N13       1.0  0.69363  0.38727  0.33834  1.0000
  C   C20       1.0  0.63945  0.36043  0.33851  1.0000
  N   N14       1.0  0.61311  0.30644  0.33841  1.0000
  C   C21       1.0  0.63995  0.27909  0.33861  1.0000
  N   N15       1.0  0.69394  0.30675  0.33845  1.0000
  N   N16       1.0  0.77386  0.38955  0.33860  1.0000
  N   N17       1.0  0.61600  0.22652  0.33872  1.0000
  N   N18       1.0  0.61083  0.38438  0.33851  1.0000
  C   C22       1.0  0.48194  0.54429  0.40699  1.0000
  C   C23       1.0  0.44576  0.56328  0.39958  1.0000
  H   H10       1.0  0.44626  0.58918  0.44659  1.0000
  C   C24       1.0  0.51650  0.48892  0.34630  1.0000
  C   C25       1.0  0.58880  0.45084  0.35265  1.0000
  C   C26       1.0  0.59052  0.48652  0.41858  1.0000
  C   C27       1.0  0.55439  0.50576  0.41660  1.0000
  C   C28       1.0  0.55528  0.54129  0.48183  1.0000
  C   C29       1.0  0.51931  0.56037  0.47710  1.0000
  H   H11       1.0  0.58227  0.55378  0.53293  1.0000
  H   H12       1.0  0.52089  0.58634  0.52486  1.0000
  H   H13       1.0  0.61826  0.49857  0.46861  1.0000
  C   C30       1.0  0.62528  0.43336  0.35402  1.0000
  H   H14       1.0  0.66278  0.45900  0.37100  1.0000
  C   C31       1.0  0.45605  0.93771  0.40705  1.0000
  C   C32       1.0  0.43706  0.88254  0.39962  1.0000
  H   H15       1.0  0.41116  0.85713  0.44661  1.0000
  C   C33       1.0  0.51144  0.02766  0.34644  1.0000
  C   C34       1.0  0.54953  0.13803  0.35287  1.0000
  C   C35       1.0  0.51383  0.10405  0.41876  1.0000
  C   C36       1.0  0.49458  0.04868  0.41673  1.0000
  C   C37       1.0  0.45903  0.01403  0.48193  1.0000
  C   C38       1.0  0.43995  0.95898  0.47717  1.0000
  H   H16       1.0  0.44654  0.02852  0.53304  1.0000
  H   H17       1.0  0.41398  0.93458  0.52491  1.0000
  H   H18       1.0  0.50177  0.11973  0.46881  1.0000
  C   C39       1.0  0.56704  0.19200  0.35433  1.0000
  H   H19       1.0  0.54137  0.20385  0.37114  1.0000
  C   C40       1.0  0.06266  0.51844  0.40711  1.0000
  C   C41       1.0  0.11783  0.55461  0.39972  1.0000
  H   H20       1.0  0.14322  0.55412  0.44673  1.0000
  C   C42       1.0  0.97272  0.48387  0.34643  1.0000
  C   C43       1.0  0.86234  0.41158  0.35279  1.0000
  C   C44       1.0  0.89631  0.40986  0.41872  1.0000
  C   C45       1.0  0.95168  0.44599  0.41673  1.0000
  C   C46       1.0  0.98631  0.44509  0.48196  1.0000
  C   C47       1.0  0.04136  0.48106  0.47723  1.0000
  H   H21       1.0  0.97181  0.41811  0.53307  1.0000
  H   H22       1.0  0.06575  0.47949  0.52500  1.0000
  H   H23       1.0  0.88062  0.38213  0.46877  1.0000
  C   C48       1.0  0.80838  0.37511  0.35419  1.0000
  H   H24       1.0  0.79653  0.33761  0.37113  1.0000
