data_image0
_chemical_formula_structural       C2NOCHC2NOCHC2NOCHC4H2C4H2C4H2C2NOCHC2NOCHC2NOCHC2NOCHC2NOCHC2NOCHC4H2C4H2C4H2C4H2C4H2C4H2C2NOCHC2NOCHC2NOCHC2NOCHC2NOCHC2NOCHCNCNCNCNCNCNCNCNCNCNCNCNCNCNCNCNCNCNCNCNCNCNCNCNCNCNCNCNCNCNCNCNCNCNCNCNCNCNCNCNCNCNCNCNCNCNCNCNC4H2C4H2C4H2C2NOCHC2NOCHC2NOCHC4H2C4H2C4H2C4H2C4H2C4H2C2NOCHC2NOCHC2NOCHC2NOCHC2NOCHC2NOCHC4H2C4H2C4H2C4H2C4H2C4H2
_chemical_formula_sum              "C216 N72 O24 H72"
_cell_length_a       41.8787
_cell_length_b       41.8787
_cell_length_c       14.8764
_cell_angle_alpha    90
_cell_angle_beta     90
_cell_angle_gamma    120

_space_group_name_H-M_alt    "P 1"
_space_group_IT_number       1

loop_
  _space_group_symop_operation_xyz
  'x, y, z'

loop_
  _atom_site_type_symbol
  _atom_site_label
  _atom_site_symmetry_multiplicity
  _atom_site_fract_x
  _atom_site_fract_y
  _atom_site_fract_z
  _atom_site_occupancy
  C   C1        1.0  0.03819  0.14036  0.31666  1.0000
  C   C2        1.0  0.03802  0.10672  0.31537  1.0000
  N   N1        1.0  0.07230  0.11465  0.29640  1.0000
  O   O1        1.0  0.07246  0.16921  0.29839  1.0000
  C   C3        1.0  0.09197  0.15137  0.28689  1.0000
  H   H1        1.0  0.11941  0.16495  0.27161  1.0000
  C   C4        1.0  0.87001  0.89994  0.31699  1.0000
  C   C5        1.0  0.90366  0.93341  0.31576  1.0000
  N   N2        1.0  0.89572  0.95979  0.29711  1.0000
  O   O2        1.0  0.84116  0.90539  0.29906  1.0000
  C   C6        1.0  0.85899  0.94276  0.28795  1.0000
  H   H2        1.0  0.84541  0.95662  0.27262  1.0000
  C   C7        1.0  0.11049  0.97223  0.31618  1.0000
  C   C8        1.0  0.07703  0.97241  0.31489  1.0000
  N   N3        1.0  0.05069  0.93816  0.29552  1.0000
  O   O3        1.0  0.10509  0.93800  0.29750  1.0000
  C   C9        1.0  0.06775  0.91852  0.28579  1.0000
  H   H3        1.0  0.05391  0.89111  0.27019  1.0000
  C   C10       1.0  0.07005  0.28011  0.34770  1.0000
  C   C11       1.0  0.12962  0.35695  0.34032  1.0000
  C   C12       1.0  0.13469  0.32733  0.31203  1.0000
  C   C13       1.0  0.10570  0.28994  0.31539  1.0000
  H   H4        1.0  0.11042  0.26996  0.29011  1.0000
  H   H5        1.0  0.15939  0.33289  0.28494  1.0000
  C   C14       1.0  0.73026  0.79201  0.34765  1.0000
  C   C15       1.0  0.65342  0.77474  0.34030  1.0000
  C   C16       1.0  0.68304  0.80945  0.31215  1.0000
  C   C17       1.0  0.72043  0.81784  0.31541  1.0000
  H   H6        1.0  0.74041  0.84256  0.29022  1.0000
  H   H7        1.0  0.67749  0.82859  0.28504  1.0000
  C   C18       1.0  0.21837  0.94034  0.34752  1.0000
  C   C19       1.0  0.23562  0.88076  0.34024  1.0000
  C   C20       1.0  0.20093  0.87568  0.31199  1.0000
  C   C21       1.0  0.19253  0.90468  0.31530  1.0000
  H   H8        1.0  0.16782  0.89995  0.29006  1.0000
  H   H9        1.0  0.18178  0.85097  0.28497  1.0000
  C   C22       1.0  0.31287  0.06601  0.30133  1.0000
  C   C23       1.0  0.34934  0.09451  0.30911  1.0000
  N   N4        1.0  0.37050  0.08159  0.27758  1.0000
  O   O4        1.0  0.31122  0.03533  0.26439  1.0000
  C   C24       1.0  0.34761  0.04681  0.25202  1.0000
  H   H10       1.0  0.35665  0.03031  0.22518  1.0000
  C   C25       1.0  0.76146  0.69753  0.30117  1.0000
  C   C26       1.0  0.75350  0.66107  0.30898  1.0000
  N   N5        1.0  0.71941  0.63989  0.27751  1.0000
  O   O5        1.0  0.73242  0.69916  0.26420  1.0000
  C   C27       1.0  0.70750  0.66277  0.25200  1.0000
  H   H11       1.0  0.68198  0.65372  0.22501  1.0000
  C   C28       1.0  0.94438  0.24895  0.30143  1.0000
  C   C29       1.0  0.91588  0.25691  0.30924  1.0000
  N   N6        1.0  0.92879  0.29100  0.27777  1.0000
  O   O6        1.0  0.97506  0.27800  0.26453  1.0000
  C   C30       1.0  0.96358  0.30291  0.25222  1.0000
  H   H12       1.0  0.98008  0.32846  0.22542  1.0000
  C   C31       1.0  0.32070  0.51330  0.28799  1.0000
  C   C32       1.0  0.28244  0.49591  0.28141  1.0000
  N   N7        1.0  0.27495  0.52025  0.24335  1.0000
  O   O7        1.0  0.33746  0.54816  0.25370  1.0000
  C   C33       1.0  0.30750  0.55067  0.22825  1.0000
  H   H13       1.0  0.30972  0.57367  0.19852  1.0000
  C   C34       1.0  0.49704  0.80944  0.28816  1.0000
  C   C35       1.0  0.51443  0.78857  0.28157  1.0000
  N   N8        1.0  0.49004  0.75670  0.24370  1.0000
  O   O8        1.0  0.46214  0.79131  0.25411  1.0000
  C   C36       1.0  0.45964  0.75885  0.22854  1.0000
  H   H14       1.0  0.43655  0.73798  0.19940  1.0000
  C   C37       1.0  0.20092  0.68966  0.28827  1.0000
  C   C38       1.0  0.22180  0.72792  0.28177  1.0000
  N   N9        1.0  0.25369  0.73542  0.24396  1.0000
  O   O9        1.0  0.21905  0.67290  0.25416  1.0000
  C   C39       1.0  0.25157  0.70287  0.22891  1.0000
  H   H15       1.0  0.27237  0.70065  0.19937  1.0000
  C   C40       1.0  0.49710  0.33716  0.36173  1.0000
  C   C41       1.0  0.46075  0.25811  0.38298  1.0000
  C   C42       1.0  0.44319  0.27484  0.33799  1.0000
  C   C43       1.0  0.46102  0.31344  0.32757  1.0000
  H   H16       1.0  0.44749  0.32389  0.29160  1.0000
  H   H17       1.0  0.41806  0.25903  0.30807  1.0000
  C   C44       1.0  0.84830  0.51328  0.36142  1.0000
  C   C45       1.0  0.80572  0.54972  0.38299  1.0000
  C   C46       1.0  0.83976  0.56705  0.33687  1.0000
  C   C47       1.0  0.86052  0.54921  0.32640  1.0000
  H   H18       1.0  0.88433  0.56257  0.28977  1.0000
  H   H19       1.0  0.84897  0.59209  0.30653  1.0000
  C   C48       1.0  0.67325  0.16202  0.36155  1.0000
  C   C49       1.0  0.75228  0.20472  0.38300  1.0000
  C   C50       1.0  0.73559  0.17048  0.33782  1.0000
  C   C51       1.0  0.69699  0.14970  0.32728  1.0000
  H   H20       1.0  0.68657  0.12576  0.29119  1.0000
  H   H21       1.0  0.75142  0.16118  0.30789  1.0000
  C   C52       1.0  0.14450  0.54519  0.33624  1.0000
  C   C53       1.0  0.16270  0.48707  0.32824  1.0000
  C   C54       1.0  0.18810  0.52382  0.30109  1.0000
  C   C55       1.0  0.17933  0.55227  0.30508  1.0000
  H   H22       1.0  0.19816  0.57789  0.28178  1.0000
  H   H23       1.0  0.21336  0.53036  0.27597  1.0000
  C   C56       1.0  0.46516  0.60140  0.33637  1.0000
  C   C57       1.0  0.52330  0.67771  0.32829  1.0000
  C   C58       1.0  0.48653  0.66636  0.30121  1.0000
  C   C59       1.0  0.45809  0.62914  0.30517  1.0000
  H   H24       1.0  0.43247  0.62236  0.28190  1.0000
  H   H25       1.0  0.48001  0.68507  0.27600  1.0000
  C   C60       1.0  0.40897  0.86584  0.33647  1.0000
  C   C61       1.0  0.33267  0.84769  0.32824  1.0000
  C   C62       1.0  0.34402  0.82229  0.30107  1.0000
  C   C63       1.0  0.38124  0.83105  0.30515  1.0000
  H   H26       1.0  0.38803  0.81222  0.28184  1.0000
  H   H27       1.0  0.32531  0.79705  0.27585  1.0000
  C   C64       1.0  0.51021  0.12074  0.30995  1.0000
  C   C65       1.0  0.48266  0.12988  0.31960  1.0000
  N   N10       1.0  0.45264  0.10389  0.27831  1.0000
  O   O10       1.0  0.49737  0.08880  0.26238  1.0000
  C   C66       1.0  0.46185  0.07983  0.24562  1.0000
  H   H28       1.0  0.44393  0.05698  0.21000  1.0000
  C   C67       1.0  0.61895  0.50012  0.30986  1.0000
  C   C68       1.0  0.65562  0.52770  0.31967  1.0000
  N   N11       1.0  0.65969  0.55763  0.27783  1.0000
  O   O11       1.0  0.59991  0.51285  0.26161  1.0000
  C   C69       1.0  0.62643  0.54841  0.24507  1.0000
  H   H29       1.0  0.62163  0.56614  0.20819  1.0000
  C   C70       1.0  0.88956  0.39150  0.31015  1.0000
  C   C71       1.0  0.88044  0.35482  0.31985  1.0000
  N   N12       1.0  0.90643  0.35079  0.27850  1.0000
  O   O12       1.0  0.92148  0.41060  0.26248  1.0000
  C   C72       1.0  0.93045  0.38405  0.24572  1.0000
  H   H30       1.0  0.95330  0.38898  0.21004  1.0000
  C   C73       1.0  0.98647  0.51358  0.25537  1.0000
  C   C74       1.0  0.02464  0.53281  0.25642  1.0000
  N   N13       1.0  0.03582  0.51285  0.21036  1.0000
  O   O13       1.0  0.97311  0.48159  0.20787  1.0000
  C   C75       1.0  0.00504  0.48293  0.18216  1.0000
  H   H31       1.0  0.00542  0.46255  0.14535  1.0000
  C   C76       1.0  0.49688  0.47509  0.25558  1.0000
  C   C77       1.0  0.47766  0.49405  0.25676  1.0000
  N   N14       1.0  0.49761  0.52520  0.21075  1.0000
  O   O14       1.0  0.52888  0.49376  0.20816  1.0000
  C   C78       1.0  0.52757  0.52439  0.18267  1.0000
  H   H32       1.0  0.54789  0.54510  0.14564  1.0000
  C   C79       1.0  0.53539  0.02384  0.25533  1.0000
  C   C80       1.0  0.51643  0.98566  0.25649  1.0000
  N   N15       1.0  0.48529  0.97446  0.21047  1.0000
  O   O15       1.0  0.51675  0.03718  0.20779  1.0000
  C   C81       1.0  0.48615  0.00524  0.18218  1.0000
  H   H33       1.0  0.46539  0.00485  0.14538  1.0000
  C   C82       1.0  0.97293  0.97079  0.32972  1.0000
  N   N16       1.0  0.00630  0.97221  0.32978  1.0000
  C   C83       1.0  0.03961  0.00423  0.32968  1.0000
  N   N17       1.0  0.03819  0.03618  0.32984  1.0000
  C   C84       1.0  0.00617  0.03747  0.32977  1.0000
  N   N18       1.0  0.97423  0.00410  0.32988  1.0000
  C   C85       1.0  0.97217  0.20992  0.33343  1.0000
  N   N19       1.0  0.97321  0.17777  0.33306  1.0000
  C   C86       1.0  0.00570  0.17694  0.33468  1.0000
  N   N20       1.0  0.03796  0.21041  0.33876  1.0000
  C   C87       1.0  0.03865  0.24340  0.34264  1.0000
  N   N21       1.0  0.00533  0.24101  0.33901  1.0000
  C   C88       1.0  0.80047  0.76434  0.33330  1.0000
  N   N22       1.0  0.83262  0.79753  0.33290  1.0000
  C   C89       1.0  0.83344  0.83085  0.33458  1.0000
  N   N23       1.0  0.79997  0.82963  0.33872  1.0000
  C   C90       1.0  0.76698  0.79733  0.34259  1.0000
  N   N24       1.0  0.76938  0.76640  0.33888  1.0000
  C   C91       1.0  0.24605  0.03822  0.33344  1.0000
  N   N25       1.0  0.21287  0.03719  0.33300  1.0000
  C   C92       1.0  0.17955  0.00470  0.33456  1.0000
  N   N26       1.0  0.18075  0.97244  0.33860  1.0000
  C   C93       1.0  0.21305  0.97174  0.34248  1.0000
  N   N27       1.0  0.24398  0.00506  0.33892  1.0000
  C   C94       1.0  0.21976  0.44379  0.31441  1.0000
  N   N28       1.0  0.19411  0.40718  0.32301  1.0000
  C   C95       1.0  0.15727  0.39525  0.33187  1.0000
  N   N29       1.0  0.14722  0.42173  0.33296  1.0000
  C   C96       1.0  0.17170  0.45846  0.32511  1.0000
  N   N30       1.0  0.20740  0.46802  0.31670  1.0000
  C   C97       1.0  0.56658  0.77804  0.31444  1.0000
  N   N31       1.0  0.60318  0.78900  0.32303  1.0000
  C   C98       1.0  0.61513  0.76410  0.33185  1.0000
  N   N32       1.0  0.58864  0.72756  0.33294  1.0000
  C   C99       1.0  0.55191  0.71532  0.32512  1.0000
  N   N33       1.0  0.54234  0.74144  0.31675  1.0000
  C   C100      1.0  0.23233  0.79061  0.31465  1.0000
  N   N34       1.0  0.22137  0.81625  0.32312  1.0000
  C   C101      1.0  0.24627  0.85310  0.33187  1.0000
  N   N35       1.0  0.28280  0.86316  0.33292  1.0000
  C   C102      1.0  0.29505  0.83868  0.32514  1.0000
  N   N36       1.0  0.26893  0.80298  0.31686  1.0000
  C   C103      1.0  0.44570  0.21928  0.38079  1.0000
  N   N37       1.0  0.40923  0.19379  0.36855  1.0000
  C   C104      1.0  0.39737  0.15707  0.35800  1.0000
  N   N38       1.0  0.42390  0.14716  0.35818  1.0000
  C   C105      1.0  0.46048  0.17150  0.36957  1.0000
  N   N39       1.0  0.47019  0.20718  0.37985  1.0000
  C   C106      1.0  0.78196  0.56478  0.38117  1.0000
  N   N40       1.0  0.79291  0.60122  0.36861  1.0000
  C   C107      1.0  0.76804  0.61306  0.35805  1.0000
  N   N41       1.0  0.73160  0.58652  0.35840  1.0000
  C   C108      1.0  0.71937  0.54995  0.37001  1.0000
  N   N42       1.0  0.74537  0.54026  0.38029  1.0000
  C   C109      1.0  0.79111  0.22846  0.38123  1.0000
  N   N43       1.0  0.81660  0.21749  0.36875  1.0000
  C   C110      1.0  0.85332  0.24236  0.35820  1.0000
  N   N44       1.0  0.86323  0.27881  0.35851  1.0000
  C   C111      1.0  0.83889  0.29104  0.37004  1.0000
  N   N45       1.0  0.80321  0.26506  0.38027  1.0000
  C   C112      1.0  0.13368  0.57240  0.33163  1.0000
  N   N46       1.0  0.15652  0.60980  0.33141  1.0000
  C   C113      1.0  0.14284  0.63345  0.32589  1.0000
  N   N47       1.0  0.10587  0.61889  0.31746  1.0000
  C   C114      1.0  0.08284  0.58214  0.31413  1.0000
  N   N48       1.0  0.09728  0.55986  0.32176  1.0000
  C   C115      1.0  0.43794  0.56337  0.33176  1.0000
  N   N49       1.0  0.40054  0.54881  0.33150  1.0000
  C   C116      1.0  0.37691  0.51148  0.32601  1.0000
  N   N50       1.0  0.39147  0.48907  0.31755  1.0000
  C   C117      1.0  0.42822  0.50279  0.31424  1.0000
  N   N51       1.0  0.45048  0.53952  0.32191  1.0000
  C   C118      1.0  0.44700  0.87666  0.33200  1.0000
  N   N52       1.0  0.46155  0.85381  0.33165  1.0000
  C   C119      1.0  0.49888  0.86748  0.32613  1.0000
  N   N53       1.0  0.52129  0.90445  0.31764  1.0000
  C   C120      1.0  0.50758  0.92749  0.31434  1.0000
  N   N54       1.0  0.47085  0.91305  0.32205  1.0000
  C   C121      1.0  0.57353  0.13240  0.34005  1.0000
  N   N55       1.0  0.61062  0.15447  0.35450  1.0000
  C   C122      1.0  0.63440  0.14092  0.34961  1.0000
  N   N56       1.0  0.61999  0.10452  0.33182  1.0000
  C   C123      1.0  0.58373  0.08192  0.31705  1.0000
  N   N57       1.0  0.56143  0.09645  0.32254  1.0000
  C   C124      1.0  0.56726  0.43687  0.34029  1.0000
  N   N58       1.0  0.55222  0.39978  0.35472  1.0000
  C   C125      1.0  0.51488  0.37601  0.34982  1.0000
  N   N59       1.0  0.49292  0.39045  0.33201  1.0000
  C   C126      1.0  0.50659  0.42670  0.31722  1.0000
  N   N60       1.0  0.54342  0.44899  0.32274  1.0000
  C   C127      1.0  0.87792  0.44316  0.34034  1.0000
  N   N61       1.0  0.85584  0.45818  0.35464  1.0000
  C   C128      1.0  0.86940  0.49551  0.34962  1.0000
  N   N62       1.0  0.90580  0.51750  0.33186  1.0000
  C   C129      1.0  0.92840  0.50384  0.31723  1.0000
  N   N63       1.0  0.91387  0.46702  0.32281  1.0000
  C   C130      1.0  0.00583  0.14238  0.33273  1.0000
  C   C131      1.0  0.00600  0.07201  0.33035  1.0000
  C   C132      1.0  0.97344  0.07385  0.34569  1.0000
  C   C133      1.0  0.97334  0.10774  0.34678  1.0000
  H   H34       1.0  0.94885  0.10676  0.35918  1.0000
  H   H35       1.0  0.94902  0.05015  0.35730  1.0000
  C   C134      1.0  0.86801  0.86555  0.33265  1.0000
  C   C135      1.0  0.93839  0.93609  0.33029  1.0000
  C   C136      1.0  0.93655  0.90167  0.34526  1.0000
  C   C137      1.0  0.90265  0.86768  0.34633  1.0000
  H   H36       1.0  0.90364  0.84415  0.35842  1.0000
  H   H37       1.0  0.96026  0.90092  0.35652  1.0000
  C   C138      1.0  0.14486  0.00457  0.33258  1.0000
  C   C139      1.0  0.07431  0.00440  0.33021  1.0000
  C   C140      1.0  0.10870  0.03693  0.34588  1.0000
  C   C141      1.0  0.14269  0.03703  0.34697  1.0000
  H   H38       1.0  0.16620  0.06150  0.35962  1.0000
  H   H39       1.0  0.10942  0.06134  0.35775  1.0000
  C   C142      1.0  0.06591  0.30977  0.38021  1.0000
  C   C143      1.0  0.09438  0.34637  0.37584  1.0000
  N   N64       1.0  0.08122  0.36699  0.40966  1.0000
  O   O16       1.0  0.03498  0.30748  0.41737  1.0000
  C   C144      1.0  0.04628  0.34364  0.43314  1.0000
  H   H40       1.0  0.02960  0.35217  0.46140  1.0000
  C   C145      1.0  0.70060  0.75820  0.38008  1.0000
  C   C146      1.0  0.66400  0.75006  0.37571  1.0000
  N   N65       1.0  0.64338  0.71627  0.40943  1.0000
  O   O17       1.0  0.70289  0.72952  0.41709  1.0000
  C   C147      1.0  0.66673  0.70468  0.43293  1.0000
  H   H41       1.0  0.65819  0.67941  0.46084  1.0000
  C   C148      1.0  0.25216  0.94448  0.38004  1.0000
  C   C149      1.0  0.26029  0.91600  0.37572  1.0000
  N   N66       1.0  0.29406  0.92916  0.40955  1.0000
  O   O18       1.0  0.28081  0.97541  0.41719  1.0000
  C   C150      1.0  0.30566  0.96411  0.43299  1.0000
  H   H42       1.0  0.33088  0.98080  0.46124  1.0000
  C   C151      1.0  0.28269  0.06981  0.33112  1.0000
  C   C152      1.0  0.35926  0.12946  0.34550  1.0000
  C   C153      1.0  0.32915  0.13426  0.37067  1.0000
  C   C154      1.0  0.29187  0.10520  0.36399  1.0000
  H   H43       1.0  0.27147  0.10965  0.38740  1.0000
  H   H44       1.0  0.33420  0.15871  0.39830  1.0000
  C   C155      1.0  0.79544  0.72772  0.33089  1.0000
  C   C156      1.0  0.77853  0.65116  0.34541  1.0000
  C   C157      1.0  0.81343  0.68127  0.37064  1.0000
  C   C158      1.0  0.82166  0.71855  0.36382  1.0000
  H   H45       1.0  0.84650  0.73896  0.38728  1.0000
  H   H46       1.0  0.83284  0.67623  0.39821  1.0000
  C   C159      1.0  0.94058  0.21497  0.33118  1.0000
  C   C160      1.0  0.88092  0.23187  0.34559  1.0000
  C   C161      1.0  0.87613  0.19696  0.37072  1.0000
  C   C162      1.0  0.90519  0.18874  0.36401  1.0000
  H   H47       1.0  0.90074  0.16388  0.38737  1.0000
  H   H48       1.0  0.85168  0.17755  0.39833  1.0000
  C   C163      1.0  0.33794  0.49459  0.32375  1.0000
  C   C164      1.0  0.25870  0.45923  0.31123  1.0000
  C   C165      1.0  0.27594  0.44019  0.34584  1.0000
  C   C166      1.0  0.31472  0.45746  0.35156  1.0000
  H   H49       1.0  0.32582  0.44267  0.37835  1.0000
  H   H50       1.0  0.26043  0.41389  0.36981  1.0000
  C   C167      1.0  0.51576  0.84541  0.32381  1.0000
  C   C168      1.0  0.55111  0.80152  0.31135  1.0000
  C   C169      1.0  0.57020  0.83784  0.34570  1.0000
  C   C170      1.0  0.55291  0.85933  0.35150  1.0000
  H   H51       1.0  0.56772  0.88524  0.37820  1.0000
  H   H52       1.0  0.59650  0.84863  0.36966  1.0000
  C   C171      1.0  0.16493  0.67241  0.32373  1.0000
  C   C172      1.0  0.20884  0.75166  0.31145  1.0000
  C   C173      1.0  0.17251  0.73442  0.34578  1.0000
  C   C174      1.0  0.15100  0.69563  0.35140  1.0000
  H   H53       1.0  0.12507  0.68453  0.37799  1.0000
  H   H54       1.0  0.16169  0.74992  0.36959  1.0000
  C   C175      1.0  0.51404  0.32036  0.40879  1.0000
  C   C176      1.0  0.49625  0.28216  0.41891  1.0000
  N   N67       1.0  0.51918  0.27494  0.46517  1.0000
  O   O19       1.0  0.54787  0.33739  0.44870  1.0000
  C   C177      1.0  0.54916  0.30767  0.48200  1.0000
  H   H55       1.0  0.57130  0.31017  0.51683  1.0000
  C   C178      1.0  0.81479  0.49654  0.40940  1.0000
  C   C179      1.0  0.79444  0.51438  0.41972  1.0000
  N   N68       1.0  0.76453  0.49168  0.46701  1.0000
  O   O20       1.0  0.79821  0.46291  0.45030  1.0000
  C   C180      1.0  0.76737  0.46178  0.48430  1.0000
  H   H56       1.0  0.74790  0.43980  0.51990  1.0000
  C   C181      1.0  0.69001  0.19571  0.40883  1.0000
  C   C182      1.0  0.72820  0.21612  0.41907  1.0000
  N   N69       1.0  0.73539  0.24619  0.46562  1.0000
  O   O21       1.0  0.67295  0.21243  0.44895  1.0000
  C   C183      1.0  0.70264  0.24340  0.48248  1.0000
  H   H57       1.0  0.70011  0.26298  0.51751  1.0000
  C   C184      1.0  0.11955  0.50869  0.36534  1.0000
  C   C185      1.0  0.12848  0.48082  0.36108  1.0000
  N   N70       1.0  0.09978  0.45026  0.39329  1.0000
  O   O22       1.0  0.08505  0.49569  0.40020  1.0000
  C   C186      1.0  0.07456  0.45963  0.41560  1.0000
  H   H58       1.0  0.04958  0.44131  0.44264  1.0000
  C   C187      1.0  0.50166  0.61293  0.36546  1.0000
  C   C188      1.0  0.52954  0.64974  0.36118  1.0000
  N   N71       1.0  0.56010  0.65158  0.39331  1.0000
  O   O23       1.0  0.51466  0.59144  0.40026  1.0000
  C   C189      1.0  0.55073  0.61700  0.41569  1.0000
  H   H59       1.0  0.56907  0.61033  0.44247  1.0000
  C   C190      1.0  0.39743  0.89080  0.36557  1.0000
  C   C191      1.0  0.36062  0.88188  0.36122  1.0000
  N   N72       1.0  0.35877  0.91057  0.39350  1.0000
  O   O24       1.0  0.41891  0.92527  0.40057  1.0000
  C   C192      1.0  0.39335  0.93577  0.41593  1.0000
  H   H60       1.0  0.40000  0.96073  0.44306  1.0000
  C   C193      1.0  0.54628  0.14337  0.34508  1.0000
  C   C194      1.0  0.48872  0.16209  0.36415  1.0000
  C   C195      1.0  0.52495  0.18540  0.39766  1.0000
  C   C196      1.0  0.55306  0.17624  0.38860  1.0000
  H   H61       1.0  0.57840  0.19357  0.41579  1.0000
  H   H62       1.0  0.53124  0.20928  0.43053  1.0000
  C   C197      1.0  0.60548  0.46409  0.34528  1.0000
  C   C198      1.0  0.68175  0.52170  0.36456  1.0000
  C   C199      1.0  0.66880  0.48551  0.39835  1.0000
  C   C200      1.0  0.63154  0.45738  0.38921  1.0000
  H   H63       1.0  0.62350  0.43207  0.41665  1.0000
  H   H64       1.0  0.68638  0.47926  0.43144  1.0000
  C   C201      1.0  0.86695  0.40495  0.34533  1.0000
  C   C202      1.0  0.84827  0.32867  0.36454  1.0000
  C   C203      1.0  0.82496  0.34160  0.39807  1.0000
  C   C204      1.0  0.83410  0.37886  0.38896  1.0000
  H   H65       1.0  0.81679  0.38688  0.41621  1.0000
  H   H66       1.0  0.80110  0.32401  0.43103  1.0000
  C   C205      1.0  0.96641  0.52672  0.30390  1.0000
  C   C206      1.0  0.04472  0.56634  0.30345  1.0000
  C   C207      1.0  0.02491  0.58127  0.34598  1.0000
  C   C208      1.0  0.98608  0.56154  0.34657  1.0000
  H   H67       1.0  0.97255  0.57161  0.38393  1.0000
  H   H68       1.0  0.03840  0.60509  0.38261  1.0000
  C   C209      1.0  0.48373  0.44186  0.30390  1.0000
  C   C210      1.0  0.44407  0.48051  0.30357  1.0000
  C   C211      1.0  0.42906  0.44569  0.34571  1.0000
  C   C212      1.0  0.44888  0.42668  0.34648  1.0000
  H   H69       1.0  0.43876  0.40303  0.38369  1.0000
  H   H70       1.0  0.40527  0.43536  0.38244  1.0000
  C   C213      1.0  0.56860  0.04391  0.30378  1.0000
  C   C214      1.0  0.52989  0.96561  0.30359  1.0000
  C   C215      1.0  0.56464  0.98542  0.34605  1.0000
  C   C216      1.0  0.58374  0.02425  0.34653  1.0000
  H   H71       1.0  0.60736  0.03779  0.38385  1.0000
  H   H72       1.0  0.57498  0.97194  0.38271  1.0000
