data_image0
_chemical_formula_structural       C4OC4OH4N2C4OC4OH4N2C4OC4OH4N3C2HCHNC2HCHNC2HCHNC2HCHNC2HCHNC2HCHC2HC2HN2C2HC2HN2C2HC2HN2CNC2OHCHCNC2OHCHCNC2OHCHCNC2OHCHCNC2OHCHCNC2OHCH
_chemical_formula_sum              "C78 O12 H42 N24"
_cell_length_a       31.6953
_cell_length_b       31.6954
_cell_length_c       15.0376
_cell_angle_alpha    90
_cell_angle_beta     90
_cell_angle_gamma    120

_space_group_name_H-M_alt    "P 1"
_space_group_IT_number       1

loop_
  _space_group_symop_operation_xyz
  'x, y, z'

loop_
  _atom_site_type_symbol
  _atom_site_label
  _atom_site_symmetry_multiplicity
  _atom_site_fract_x
  _atom_site_fract_y
  _atom_site_fract_z
  _atom_site_occupancy
  C   C1        1.0  0.97179  0.48491  0.32546  1.0000
  C   C2        1.0  0.86759  0.43031  0.32857  1.0000
  C   C3        1.0  0.89469  0.40604  0.33496  1.0000
  C   C4        1.0  0.94573  0.43378  0.34177  1.0000
  O   O1        1.0  0.81788  0.40454  0.32786  1.0000
  C   C5        1.0  0.02391  0.51235  0.32542  1.0000
  C   C6        1.0  0.05003  0.56355  0.34089  1.0000
  C   C7        1.0  0.10109  0.59120  0.33424  1.0000
  C   C8        1.0  0.12810  0.56681  0.32873  1.0000
  O   O2        1.0  0.17781  0.59247  0.32826  1.0000
  H   H1        1.0  0.80743  0.39202  0.38852  1.0000
  H   H2        1.0  0.18819  0.60519  0.38884  1.0000
  H   H3        1.0  0.96360  0.41518  0.35486  1.0000
  H   H4        1.0  0.03218  0.58225  0.35337  1.0000
  N   N1        1.0  0.12342  0.64043  0.33779  1.0000
  N   N2        1.0  0.87236  0.35685  0.33971  1.0000
  C   C9        1.0  0.51162  0.48640  0.32510  1.0000
  C   C10       1.0  0.56639  0.43696  0.32900  1.0000
  C   C11       1.0  0.59060  0.48836  0.33448  1.0000
  C   C12       1.0  0.56279  0.51161  0.34094  1.0000
  O   O3        1.0  0.59221  0.41308  0.32870  1.0000
  C   C13       1.0  0.48399  0.51091  0.32475  1.0000
  C   C14       1.0  0.43275  0.48559  0.33995  1.0000
  C   C15       1.0  0.40483  0.50868  0.33265  1.0000
  C   C16       1.0  0.42893  0.56006  0.32698  1.0000
  O   O4        1.0  0.40301  0.58383  0.32602  1.0000
  H   H5        1.0  0.60490  0.41549  0.38933  1.0000
  H   H6        1.0  0.38997  0.58131  0.38638  1.0000
  H   H7        1.0  0.58139  0.54816  0.35329  1.0000
  H   H8        1.0  0.41421  0.44908  0.35269  1.0000
  N   N3        1.0  0.35563  0.48153  0.33634  1.0000
  N   N4        1.0  0.63982  0.51539  0.33809  1.0000
  C   C17       1.0  0.51009  0.02477  0.32438  1.0000
  C   C18       1.0  0.55915  0.12896  0.32705  1.0000
  C   C19       1.0  0.50776  0.10163  0.33244  1.0000
  C   C20       1.0  0.48469  0.05061  0.33952  1.0000
  O   O5        1.0  0.58289  0.17866  0.32627  1.0000
  C   C21       1.0  0.48567  0.97265  0.32457  1.0000
  C   C22       1.0  0.51094  0.94680  0.34104  1.0000
  C   C23       1.0  0.48781  0.89574  0.33471  1.0000
  C   C24       1.0  0.43645  0.86847  0.32854  1.0000
  O   O6        1.0  0.41265  0.81876  0.32835  1.0000
  H   H9        1.0  0.58032  0.18910  0.38668  1.0000
  H   H10       1.0  0.41484  0.80853  0.38913  1.0000
  H   H11       1.0  0.44815  0.03258  0.35194  1.0000
  H   H12       1.0  0.54742  0.96482  0.35410  1.0000
  N   N5        1.0  0.51477  0.87352  0.33969  1.0000
  N   N6        1.0  0.48060  0.12368  0.33616  1.0000
  N   N7        1.0  0.20644  0.47870  0.26993  1.0000
  C   C25       1.0  0.24515  0.47550  0.24072  1.0000
  C   C26       1.0  0.27839  0.47598  0.30351  1.0000
  H   H13       1.0  0.25121  0.47597  0.17386  1.0000
  C   C27       1.0  0.32494  0.48556  0.27901  1.0000
  H   H14       1.0  0.33790  0.50071  0.21770  1.0000
  N   N8        1.0  0.51799  0.72751  0.27190  1.0000
  C   C28       1.0  0.52190  0.76982  0.24328  1.0000
  C   C29       1.0  0.52049  0.80198  0.30628  1.0000
  H   H15       1.0  0.52256  0.77612  0.17648  1.0000
  C   C30       1.0  0.51140  0.83928  0.28182  1.0000
  H   H16       1.0  0.49720  0.83776  0.21983  1.0000
  N   N9        1.0  0.26988  0.78927  0.26984  1.0000
  C   C31       1.0  0.22796  0.75041  0.24107  1.0000
  C   C32       1.0  0.19523  0.71747  0.30428  1.0000
  H   H17       1.0  0.22243  0.74395  0.17430  1.0000
  C   C33       1.0  0.15822  0.67085  0.28028  1.0000
  H   H18       1.0  0.16030  0.65768  0.21912  1.0000
  N   N10       1.0  0.78879  0.51801  0.27008  1.0000
  C   C34       1.0  0.74999  0.52118  0.24127  1.0000
  C   C35       1.0  0.71697  0.52087  0.30440  1.0000
  H   H19       1.0  0.74353  0.52023  0.17450  1.0000
  C   C36       1.0  0.67032  0.51122  0.28046  1.0000
  H   H20       1.0  0.65717  0.49594  0.21931  1.0000
  N   N11       1.0  0.47825  0.27029  0.26978  1.0000
  C   C37       1.0  0.47486  0.22829  0.24058  1.0000
  C   C38       1.0  0.47526  0.19549  0.30337  1.0000
  H   H21       1.0  0.47525  0.22266  0.17371  1.0000
  C   C39       1.0  0.48465  0.15840  0.27881  1.0000
  H   H22       1.0  0.49978  0.16056  0.21749  1.0000
  N   N12       1.0  0.72649  0.20757  0.27192  1.0000
  C   C40       1.0  0.76870  0.24605  0.24324  1.0000
  C   C41       1.0  0.80083  0.27962  0.30628  1.0000
  H   H23       1.0  0.77495  0.25176  0.17644  1.0000
  C   C42       1.0  0.83806  0.32605  0.28186  1.0000
  H   H24       1.0  0.83652  0.33877  0.21993  1.0000
  C   C43       1.0  0.94303  0.50723  0.31008  1.0000
  C   C44       1.0  0.89198  0.48147  0.31895  1.0000
  H   H25       1.0  0.95901  0.54359  0.29666  1.0000
  C   C45       1.0  0.10365  0.51562  0.31963  1.0000
  C   C46       1.0  0.05262  0.48993  0.31051  1.0000
  H   H26       1.0  0.03660  0.45352  0.29753  1.0000
  N   N13       1.0  0.12738  0.48999  0.31971  1.0000
  N   N14       1.0  0.86817  0.50703  0.31887  1.0000
  C   C47       1.0  0.48941  0.43528  0.31021  1.0000
  C   C48       1.0  0.51523  0.41008  0.31958  1.0000
  H   H27       1.0  0.45307  0.41478  0.29676  1.0000
  C   C49       1.0  0.48016  0.58709  0.31862  1.0000
  C   C50       1.0  0.50617  0.56203  0.30999  1.0000
  H   H28       1.0  0.54262  0.58265  0.29764  1.0000
  N   N15       1.0  0.50556  0.63647  0.31966  1.0000
  N   N16       1.0  0.48971  0.36071  0.31962  1.0000
  C   C51       1.0  0.56123  0.05376  0.30994  1.0000
  C   C52       1.0  0.58623  0.10482  0.31865  1.0000
  H   H29       1.0  0.58187  0.03796  0.29739  1.0000
  C   C53       1.0  0.40950  0.89265  0.31849  1.0000
  C   C54       1.0  0.43463  0.94367  0.30906  1.0000
  H   H30       1.0  0.41410  0.95947  0.29549  1.0000
  N   N17       1.0  0.36013  0.86872  0.31848  1.0000
  N   N18       1.0  0.63561  0.12883  0.31973  1.0000
  C   C55       1.0  0.19744  0.48200  0.35732  1.0000
  N   N19       1.0  0.26848  0.47737  0.39093  1.0000
  C   C56       1.0  0.22964  0.48033  0.42134  1.0000
  C   C57       1.0  0.22532  0.48222  0.51249  1.0000
  O   O7        1.0  0.25929  0.51591  0.55142  1.0000
  H   H31       1.0  0.19250  0.47232  0.53633  1.0000
  C   C58       1.0  0.16350  0.49686  0.37624  1.0000
  H   H32       1.0  0.16668  0.51467  0.43486  1.0000
  C   C59       1.0  0.51319  0.71426  0.35894  1.0000
  N   N20       1.0  0.51751  0.78959  0.39338  1.0000
  C   C60       1.0  0.51424  0.74756  0.42373  1.0000
  C   C61       1.0  0.50957  0.73833  0.51450  1.0000
  O   O8        1.0  0.51160  0.76938  0.56547  1.0000
  H   H33       1.0  0.52375  0.71905  0.53864  1.0000
  C   C62       1.0  0.49797  0.66520  0.37632  1.0000
  H   H34       1.0  0.47967  0.65004  0.43430  1.0000
  C   C63       1.0  0.28217  0.79878  0.35715  1.0000
  N   N21       1.0  0.20656  0.72788  0.39157  1.0000
  C   C64       1.0  0.24837  0.76688  0.42159  1.0000
  C   C65       1.0  0.25464  0.77197  0.51263  1.0000
  O   O9        1.0  0.24951  0.73698  0.55564  1.0000
  H   H35       1.0  0.27897  0.80419  0.53696  1.0000
  C   C66       1.0  0.33102  0.83282  0.37550  1.0000
  H   H36       1.0  0.34577  0.82998  0.43424  1.0000
  C   C67       1.0  0.79822  0.51511  0.35739  1.0000
  N   N22       1.0  0.72729  0.51979  0.39170  1.0000
  C   C68       1.0  0.76626  0.51694  0.42178  1.0000
  C   C69       1.0  0.77122  0.51558  0.51282  1.0000
  O   O10       1.0  0.73619  0.48559  0.55558  1.0000
  H   H37       1.0  0.80341  0.52346  0.53726  1.0000
  C   C70       1.0  0.83220  0.50023  0.37575  1.0000
  H   H38       1.0  0.82927  0.48257  0.43443  1.0000
  C   C71       1.0  0.48167  0.28264  0.35716  1.0000
  N   N23       1.0  0.47677  0.20684  0.39079  1.0000
  C   C72       1.0  0.47992  0.24873  0.42118  1.0000
  C   C73       1.0  0.48188  0.25497  0.51233  1.0000
  O   O11       1.0  0.51551  0.25455  0.55122  1.0000
  H   H39       1.0  0.47211  0.27798  0.53619  1.0000
  C   C74       1.0  0.49666  0.33147  0.37604  1.0000
  H   H40       1.0  0.51446  0.34609  0.43467  1.0000
  C   C75       1.0  0.71333  0.19904  0.35901  1.0000
  N   N24       1.0  0.78859  0.27014  0.39341  1.0000
  C   C76       1.0  0.74664  0.23128  0.42378  1.0000
  C   C77       1.0  0.73750  0.22662  0.51458  1.0000
  O   O12       1.0  0.76856  0.25564  0.56555  1.0000
  H   H41       1.0  0.71829  0.19314  0.53864  1.0000
  C   C78       1.0  0.66431  0.16511  0.37646  1.0000
  H   H42       1.0  0.64915  0.16818  0.43450  1.0000
