data_image0
_chemical_formula_structural       C3OH2C3OH2C3OH2C3OH2C3HOHC3HOHC3HOHC3HOHC3HOHC3HOHC3HOHC3HOHC3OH2C3OH2C3OH2C3OH2C3OH2C3OH2C3OH2C3OH2C3HOHC3HOHC3HOHC3HOHC3HOHC3HOHC3HOHC3HOHC3HOHC3HOHC6H3C6H3C6H3C6H3C6H3C6H3C6H3C6H3C6H3C6H3C6H3C6H3C6H3C6H3C6H3C6H3C6H3C6H3C6H3C6H3C3HOHC3HOHC3HOHC3HOHC3OH2C3OH2C3OH2C3OH2C3OH2C3OH2C3OH2C3OH2C3HOHC3HOHC3HOHC3HOHC3HOHC3HOHC3HOHC3HOHC3OH2C3OH2C3OH2C3OH2C3OH2C3OH2C3OH2C3OH2C3OH2C3OH2
_chemical_formula_sum              "C300 O60 H180"
_cell_length_a       44.2709
_cell_length_b       44.2709
_cell_length_c       14.8572
_cell_angle_alpha    90
_cell_angle_beta     90
_cell_angle_gamma    90

_space_group_name_H-M_alt    "P 1"
_space_group_IT_number       1

loop_
  _space_group_symop_operation_xyz
  'x, y, z'

loop_
  _atom_site_type_symbol
  _atom_site_label
  _atom_site_symmetry_multiplicity
  _atom_site_fract_x
  _atom_site_fract_y
  _atom_site_fract_z
  _atom_site_occupancy
  C   C1        1.0  0.36288  0.03696  0.28030  1.0000
  C   C2        1.0  0.33198  0.02948  0.27807  1.0000
  C   C3        1.0  0.31228  0.04063  0.34547  1.0000
  O   O1        1.0  0.32188  0.01186  0.20923  1.0000
  H   H1        1.0  0.37661  0.02912  0.22998  1.0000
  H   H2        1.0  0.31363  0.02573  0.16373  1.0000
  C   C4        1.0  0.64666  0.97273  0.28245  1.0000
  C   C5        1.0  0.67754  0.98034  0.28154  1.0000
  C   C6        1.0  0.69705  0.96886  0.34891  1.0000
  O   O2        1.0  0.68780  0.99843  0.21403  1.0000
  H   H3        1.0  0.63308  0.98086  0.23216  1.0000
  H   H4        1.0  0.69613  0.98488  0.16781  1.0000
  C   C7        1.0  0.97239  0.36331  0.27860  1.0000
  C   C8        1.0  0.98010  0.33246  0.27624  1.0000
  C   C9        1.0  0.96900  0.31264  0.34336  1.0000
  O   O3        1.0  0.99787  0.32252  0.20753  1.0000
  H   H5        1.0  0.98022  0.37714  0.22849  1.0000
  H   H6        1.0  0.98410  0.31434  0.16165  1.0000
  C   C10       1.0  0.03700  0.64679  0.28328  1.0000
  C   C11       1.0  0.02953  0.67770  0.28239  1.0000
  C   C12       1.0  0.04105  0.69715  0.34986  1.0000
  O   O4        1.0  0.01148  0.68805  0.21487  1.0000
  H   H7        1.0  0.02882  0.63327  0.23296  1.0000
  H   H8        1.0  0.02506  0.69644  0.16883  1.0000
  C   C13       1.0  0.17765  0.52900  0.28236  1.0000
  C   C14       1.0  0.14681  0.53668  0.27883  1.0000
  C   C15       1.0  0.13399  0.55507  0.34692  1.0000
  H   H9        1.0  0.18663  0.51638  0.23117  1.0000
  O   O5        1.0  0.13023  0.52633  0.20801  1.0000
  H   H10       1.0  0.12905  0.54307  0.16463  1.0000
  C   C16       1.0  0.82366  0.44999  0.27060  1.0000
  C   C17       1.0  0.85437  0.44175  0.26996  1.0000
  C   C18       1.0  0.87406  0.45307  0.33708  1.0000
  H   H11       1.0  0.80995  0.44197  0.22049  1.0000
  O   O6        1.0  0.86497  0.42449  0.20082  1.0000
  H   H12       1.0  0.85689  0.40400  0.20978  1.0000
  C   C19       1.0  0.52961  0.83150  0.27879  1.0000
  C   C20       1.0  0.53713  0.86238  0.27616  1.0000
  C   C21       1.0  0.55565  0.87502  0.34426  1.0000
  H   H13       1.0  0.51683  0.82268  0.22769  1.0000
  O   O7        1.0  0.52647  0.87918  0.20622  1.0000
  H   H14       1.0  0.54308  0.88068  0.16250  1.0000
  C   C22       1.0  0.44976  0.18551  0.27420  1.0000
  C   C23       1.0  0.44153  0.15479  0.27271  1.0000
  C   C24       1.0  0.45302  0.13486  0.33893  1.0000
  H   H15       1.0  0.44160  0.19942  0.22475  1.0000
  O   O8        1.0  0.42411  0.14444  0.20361  1.0000
  H   H16       1.0  0.40367  0.15254  0.21312  1.0000
  C   C25       1.0  0.20298  0.09457  0.25847  1.0000
  C   C26       1.0  0.19210  0.12458  0.25664  1.0000
  C   C27       1.0  0.18766  0.14070  0.33792  1.0000
  H   H17       1.0  0.20761  0.08400  0.19873  1.0000
  O   O9        1.0  0.18675  0.13779  0.17546  1.0000
  H   H18       1.0  0.20566  0.14787  0.15802  1.0000
  C   C28       1.0  0.79971  0.91154  0.26053  1.0000
  C   C29       1.0  0.81048  0.88152  0.26094  1.0000
  C   C30       1.0  0.82181  0.86857  0.34130  1.0000
  H   H19       1.0  0.79043  0.91988  0.20247  1.0000
  O   O10       1.0  0.80986  0.86541  0.18288  1.0000
  H   H20       1.0  0.78929  0.85722  0.17743  1.0000
  C   C31       1.0  0.91136  0.21050  0.25335  1.0000
  C   C32       1.0  0.88131  0.19980  0.25468  1.0000
  C   C33       1.0  0.86880  0.18793  0.33496  1.0000
  H   H21       1.0  0.91937  0.22018  0.19546  1.0000
  O   O11       1.0  0.86476  0.20094  0.17748  1.0000
  H   H22       1.0  0.85688  0.22166  0.17303  1.0000
  C   C34       1.0  0.09709  0.80125  0.26035  1.0000
  C   C35       1.0  0.12710  0.81208  0.25915  1.0000
  C   C36       1.0  0.14100  0.82199  0.33972  1.0000
  H   H23       1.0  0.08807  0.79290  0.20196  1.0000
  O   O12       1.0  0.14232  0.81262  0.17954  1.0000
  H   H24       1.0  0.15131  0.79246  0.17219  1.0000
  C   C37       1.0  0.32754  0.62046  0.28139  1.0000
  C   C38       1.0  0.31562  0.59081  0.28232  1.0000
  C   C39       1.0  0.29846  0.58052  0.35678  1.0000
  O   O13       1.0  0.31974  0.57301  0.20861  1.0000
  H   H25       1.0  0.33903  0.62760  0.22549  1.0000
  H   H26       1.0  0.30286  0.57742  0.16760  1.0000
  C   C40       1.0  0.69621  0.38239  0.25763  1.0000
  C   C41       1.0  0.70749  0.41223  0.25557  1.0000
  C   C42       1.0  0.70908  0.42972  0.33545  1.0000
  O   O14       1.0  0.71726  0.42378  0.17569  1.0000
  H   H27       1.0  0.69566  0.37017  0.19914  1.0000
  H   H28       1.0  0.73734  0.41504  0.16451  1.0000
  C   C43       1.0  0.62194  0.68390  0.27062  1.0000
  C   C44       1.0  0.59226  0.69575  0.27066  1.0000
  C   C45       1.0  0.58059  0.71016  0.34843  1.0000
  O   O15       1.0  0.57576  0.69425  0.19346  1.0000
  H   H29       1.0  0.63011  0.67434  0.21279  1.0000
  H   H30       1.0  0.58097  0.71233  0.15829  1.0000
  C   C46       1.0  0.38459  0.31678  0.26452  1.0000
  C   C47       1.0  0.41438  0.30529  0.26424  1.0000
  C   C48       1.0  0.42989  0.29994  0.34625  1.0000
  O   O16       1.0  0.42764  0.29882  0.18379  1.0000
  H   H31       1.0  0.37379  0.32005  0.20436  1.0000
  H   H32       1.0  0.42013  0.27881  0.16568  1.0000
  C   C49       1.0  0.20414  0.92355  0.27813  1.0000
  C   C50       1.0  0.21046  0.95486  0.27785  1.0000
  C   C51       1.0  0.22847  0.96788  0.34657  1.0000
  O   O17       1.0  0.19939  0.97188  0.20903  1.0000
  H   H33       1.0  0.19134  0.91483  0.22696  1.0000
  H   H34       1.0  0.21539  0.97264  0.16314  1.0000
  C   C52       1.0  0.80740  0.08530  0.28793  1.0000
  C   C53       1.0  0.80094  0.05401  0.28847  1.0000
  C   C54       1.0  0.78116  0.04156  0.35379  1.0000
  O   O18       1.0  0.81360  0.03653  0.22323  1.0000
  H   H35       1.0  0.82135  0.09352  0.23874  1.0000
  H   H36       1.0  0.79871  0.03536  0.17423  1.0000
  C   C55       1.0  0.08588  0.20330  0.27708  1.0000
  C   C56       1.0  0.05456  0.20965  0.27747  1.0000
  C   C57       1.0  0.04188  0.22876  0.34415  1.0000
  O   O19       1.0  0.03722  0.19749  0.21106  1.0000
  H   H37       1.0  0.09426  0.18972  0.22724  1.0000
  H   H38       1.0  0.03611  0.21277  0.16315  1.0000
  C   C58       1.0  0.92438  0.80731  0.29066  1.0000
  C   C59       1.0  0.95566  0.80088  0.29073  1.0000
  C   C60       1.0  0.96824  0.78111  0.35587  1.0000
  O   O20       1.0  0.97303  0.81359  0.22528  1.0000
  H   H39       1.0  0.91605  0.82127  0.24166  1.0000
  H   H40       1.0  0.97418  0.79869  0.17627  1.0000
  C   C61       1.0  0.26823  0.44801  0.27175  1.0000
  C   C62       1.0  0.27403  0.41662  0.27288  1.0000
  C   C63       1.0  0.29391  0.40402  0.33760  1.0000
  H   H41       1.0  0.25386  0.45627  0.22367  1.0000
  O   O21       1.0  0.26162  0.39910  0.20710  1.0000
  H   H42       1.0  0.23987  0.39773  0.21999  1.0000
  C   C64       1.0  0.71149  0.55422  0.27779  1.0000
  C   C65       1.0  0.70570  0.58557  0.27278  1.0000
  C   C66       1.0  0.71622  0.60544  0.34099  1.0000
  H   H43       1.0  0.70449  0.54066  0.22598  1.0000
  O   O22       1.0  0.69023  0.59607  0.20002  1.0000
  H   H44       1.0  0.70547  0.60398  0.15797  1.0000
  C   C67       1.0  0.44829  0.74138  0.26715  1.0000
  C   C68       1.0  0.41688  0.73569  0.26891  1.0000
  C   C69       1.0  0.40438  0.71572  0.33358  1.0000
  H   H45       1.0  0.45648  0.75582  0.21917  1.0000
  O   O23       1.0  0.39922  0.74831  0.20381  1.0000
  H   H46       1.0  0.39804  0.77005  0.21698  1.0000
  C   C70       1.0  0.55387  0.29919  0.28709  1.0000
  C   C71       1.0  0.58513  0.30544  0.28172  1.0000
  C   C72       1.0  0.60559  0.29355  0.34638  1.0000
  H   H47       1.0  0.53994  0.30733  0.23771  1.0000
  O   O24       1.0  0.59491  0.32271  0.21169  1.0000
  H   H48       1.0  0.60278  0.30862  0.16621  1.0000
  C   C73       1.0  0.21330  0.27362  0.28191  1.0000
  C   C74       1.0  0.23584  0.29631  0.28044  1.0000
  C   C75       1.0  0.25990  0.29621  0.34377  1.0000
  H   H49       1.0  0.19669  0.27427  0.23401  1.0000
  O   O25       1.0  0.23390  0.31783  0.21521  1.0000
  H   H50       1.0  0.24763  0.31145  0.16676  1.0000
  C   C76       1.0  0.77294  0.75982  0.27962  1.0000
  C   C77       1.0  0.74996  0.73760  0.27826  1.0000
  C   C78       1.0  0.75020  0.71316  0.34025  1.0000
  H   H51       1.0  0.77225  0.77659  0.23223  1.0000
  O   O26       1.0  0.72880  0.73891  0.21167  1.0000
  H   H52       1.0  0.71601  0.75659  0.22419  1.0000
  C   C79       1.0  0.75978  0.23679  0.27511  1.0000
  C   C80       1.0  0.73759  0.25982  0.27415  1.0000
  C   C81       1.0  0.71344  0.25980  0.33720  1.0000
  H   H53       1.0  0.77633  0.23733  0.22699  1.0000
  O   O27       1.0  0.73858  0.28075  0.20690  1.0000
  H   H54       1.0  0.75644  0.29345  0.21788  1.0000
  C   C82       1.0  0.27409  0.79714  0.28438  1.0000
  C   C83       1.0  0.29685  0.77468  0.28246  1.0000
  C   C84       1.0  0.29683  0.75046  0.34531  1.0000
  H   H55       1.0  0.27467  0.81386  0.23681  1.0000
  O   O28       1.0  0.31830  0.77683  0.21709  1.0000
  H   H56       1.0  0.31193  0.76317  0.16846  1.0000
  C   C85       1.0  0.48185  0.00505  0.27581  1.0000
  C   C86       1.0  0.50436  0.98265  0.27348  1.0000
  C   C87       1.0  0.52742  0.98234  0.33973  1.0000
  H   H57       1.0  0.46557  0.00503  0.22684  1.0000
  O   O29       1.0  0.50305  0.96178  0.20622  1.0000
  H   H58       1.0  0.51802  0.96801  0.16101  1.0000
  C   C88       1.0  0.00378  0.48220  0.27506  1.0000
  C   C89       1.0  0.02622  0.50467  0.27303  1.0000
  C   C90       1.0  0.02653  0.52765  0.33947  1.0000
  H   H59       1.0  0.00383  0.46593  0.22604  1.0000
  O   O30       1.0  0.04717  0.50333  0.20598  1.0000
  H   H60       1.0  0.04106  0.51840  0.16086  1.0000
  C   C91       1.0  0.28079  0.03469  0.34316  1.0000
  C   C92       1.0  0.26011  0.05887  0.34115  1.0000
  C   C93       1.0  0.22864  0.05385  0.33992  1.0000
  C   C94       1.0  0.21783  0.02368  0.34064  1.0000
  C   C95       1.0  0.23812  0.99879  0.34362  1.0000
  C   C96       1.0  0.26953  0.00490  0.34400  1.0000
  H   H61       1.0  0.19503  0.01985  0.34130  1.0000
  H   H62       1.0  0.28460  0.98733  0.34577  1.0000
  H   H63       1.0  0.26817  0.08061  0.34018  1.0000
  C   C97       1.0  0.72857  0.97479  0.34767  1.0000
  C   C98       1.0  0.74916  0.95057  0.34402  1.0000
  C   C99       1.0  0.78065  0.95546  0.34288  1.0000
  C   C100      1.0  0.79154  0.98559  0.34698  1.0000
  C   C101      1.0  0.77137  0.01060  0.35084  1.0000
  C   C102      1.0  0.73994  0.00453  0.35016  1.0000
  H   H64       1.0  0.81435  0.98928  0.34777  1.0000
  H   H65       1.0  0.72487  0.02210  0.35200  1.0000
  H   H66       1.0  0.74099  0.92889  0.34148  1.0000
  C   C103      1.0  0.97500  0.28116  0.34065  1.0000
  C   C104      1.0  0.95081  0.26053  0.33691  1.0000
  C   C105      1.0  0.95576  0.22905  0.33458  1.0000
  C   C106      1.0  0.98593  0.21822  0.33755  1.0000
  C   C107      1.0  0.01090  0.23844  0.34153  1.0000
  C   C108      1.0  0.00477  0.26987  0.34205  1.0000
  H   H67       1.0  0.98970  0.19542  0.33753  1.0000
  H   H68       1.0  0.02231  0.28496  0.34418  1.0000
  H   H69       1.0  0.92911  0.26867  0.33528  1.0000
  C   C109      1.0  0.03509  0.72865  0.34892  1.0000
  C   C110      1.0  0.05927  0.74930  0.34538  1.0000
  C   C111      1.0  0.05427  0.78078  0.34443  1.0000
  C   C112      1.0  0.02413  0.79161  0.34852  1.0000
  C   C113      1.0  0.99919  0.77137  0.35247  1.0000
  C   C114      1.0  0.00532  0.73995  0.35163  1.0000
  H   H70       1.0  0.02039  0.81441  0.34946  1.0000
  H   H71       1.0  0.98779  0.72485  0.35351  1.0000
  H   H72       1.0  0.08097  0.74121  0.34262  1.0000
  C   C115      1.0  0.22798  0.53409  0.34965  1.0000
  C   C116      1.0  0.24840  0.55846  0.35144  1.0000
  C   C117      1.0  0.27998  0.55404  0.35123  1.0000
  C   C118      1.0  0.29108  0.52402  0.34460  1.0000
  C   C119      1.0  0.27113  0.49883  0.34022  1.0000
  C   C120      1.0  0.23964  0.50453  0.34356  1.0000
  H   H73       1.0  0.31392  0.52051  0.34310  1.0000
  H   H74       1.0  0.22477  0.48678  0.34387  1.0000
  H   H75       1.0  0.23997  0.58004  0.35255  1.0000
  C   C121      1.0  0.78019  0.47485  0.34069  1.0000
  C   C122      1.0  0.75941  0.45075  0.33861  1.0000
  C   C123      1.0  0.72793  0.45580  0.33875  1.0000
  C   C124      1.0  0.71718  0.48596  0.34285  1.0000
  C   C125      1.0  0.73757  0.51074  0.34691  1.0000
  C   C126      1.0  0.76895  0.50464  0.34447  1.0000
  H   H76       1.0  0.69440  0.48987  0.34360  1.0000
  H   H77       1.0  0.78400  0.52223  0.34350  1.0000
  H   H78       1.0  0.76741  0.42900  0.33740  1.0000
  C   C127      1.0  0.53483  0.78097  0.34450  1.0000
  C   C128      1.0  0.55908  0.76038  0.34539  1.0000
  C   C129      1.0  0.55435  0.72886  0.34377  1.0000
  C   C130      1.0  0.52428  0.71794  0.33749  1.0000
  C   C131      1.0  0.49925  0.73809  0.33437  1.0000
  C   C132      1.0  0.50517  0.76952  0.33854  1.0000
  H   H79       1.0  0.52063  0.69513  0.33522  1.0000
  H   H80       1.0  0.48752  0.78450  0.33964  1.0000
  H   H81       1.0  0.58074  0.76859  0.34685  1.0000
  C   C133      1.0  0.47484  0.22872  0.34521  1.0000
  C   C134      1.0  0.45076  0.24955  0.34526  1.0000
  C   C135      1.0  0.45591  0.28099  0.34745  1.0000
  C   C136      1.0  0.48613  0.29164  0.35069  1.0000
  C   C137      1.0  0.51092  0.27119  0.35283  1.0000
  C   C138      1.0  0.50466  0.23986  0.34848  1.0000
  H   H82       1.0  0.49007  0.31440  0.35291  1.0000
  H   H83       1.0  0.52218  0.22476  0.34587  1.0000
  H   H84       1.0  0.42898  0.24162  0.34416  1.0000
  C   C139      1.0  0.19142  0.22594  0.34201  1.0000
  C   C140      1.0  0.20004  0.19507  0.34029  1.0000
  C   C141      1.0  0.17844  0.17153  0.33787  1.0000
  C   C142      1.0  0.14746  0.17905  0.33710  1.0000
  C   C143      1.0  0.13764  0.20949  0.33877  1.0000
  C   C144      1.0  0.16002  0.23252  0.34038  1.0000
  H   H85       1.0  0.13181  0.16199  0.33730  1.0000
  H   H86       1.0  0.15327  0.25463  0.34122  1.0000
  H   H87       1.0  0.22250  0.18955  0.33949  1.0000
  C   C145      1.0  0.81899  0.78316  0.34489  1.0000
  C   C146      1.0  0.81005  0.81395  0.34210  1.0000
  C   C147      1.0  0.83133  0.83781  0.34426  1.0000
  C   C148      1.0  0.86236  0.83062  0.34869  1.0000
  C   C149      1.0  0.87252  0.80031  0.35030  1.0000
  C   C150      1.0  0.85045  0.77701  0.34842  1.0000
  H   H88       1.0  0.87782  0.84784  0.35071  1.0000
  H   H89       1.0  0.85751  0.75500  0.34669  1.0000
  H   H90       1.0  0.78752  0.81920  0.34045  1.0000
  C   C151      1.0  0.78337  0.19086  0.34056  1.0000
  C   C152      1.0  0.81416  0.19975  0.33676  1.0000
  C   C153      1.0  0.83801  0.17845  0.33894  1.0000
  C   C154      1.0  0.83079  0.14744  0.34428  1.0000
  C   C155      1.0  0.80047  0.13730  0.34672  1.0000
  C   C156      1.0  0.77720  0.15941  0.34493  1.0000
  H   H91       1.0  0.84800  0.13197  0.34622  1.0000
  H   H92       1.0  0.75517  0.15238  0.34387  1.0000
  H   H93       1.0  0.81942  0.22227  0.33458  1.0000
  C   C157      1.0  0.22628  0.81863  0.34477  1.0000
  C   C158      1.0  0.19546  0.80986  0.34215  1.0000
  C   C159      1.0  0.17179  0.83134  0.34107  1.0000
  C   C160      1.0  0.17915  0.86235  0.34165  1.0000
  C   C161      1.0  0.20954  0.87227  0.34305  1.0000
  C   C162      1.0  0.23272  0.85006  0.34432  1.0000
  H   H94       1.0  0.16205  0.87796  0.34181  1.0000
  H   H95       1.0  0.25479  0.85695  0.34555  1.0000
  H   H96       1.0  0.19007  0.78737  0.34042  1.0000
  C   C163      1.0  0.31910  0.72661  0.34383  1.0000
  C   C164      1.0  0.31014  0.69586  0.34779  1.0000
  C   C165      1.0  0.33129  0.67185  0.34620  1.0000
  C   C166      1.0  0.36231  0.67902  0.34004  1.0000
  C   C167      1.0  0.37257  0.70931  0.33706  1.0000
  C   C168      1.0  0.35056  0.73267  0.33916  1.0000
  H   H97       1.0  0.37774  0.66178  0.33858  1.0000
  H   H98       1.0  0.35765  0.75467  0.34020  1.0000
  H   H99       1.0  0.28759  0.69074  0.34981  1.0000
  C   C169      1.0  0.69096  0.28347  0.33951  1.0000
  C   C170      1.0  0.69964  0.31434  0.33858  1.0000
  C   C171      1.0  0.67814  0.33798  0.34064  1.0000
  C   C172      1.0  0.64717  0.33057  0.34335  1.0000
  C   C173      1.0  0.63730  0.30017  0.34415  1.0000
  C   C174      1.0  0.65953  0.27701  0.34364  1.0000
  H   H100      1.0  0.63155  0.34765  0.34539  1.0000
  H   H101      1.0  0.65262  0.25494  0.34300  1.0000
  H   H102      1.0  0.72211  0.31983  0.33839  1.0000
  C   C175      1.0  0.72658  0.69067  0.34165  1.0000
  C   C176      1.0  0.69574  0.69941  0.34340  1.0000
  C   C177      1.0  0.67198  0.67802  0.34183  1.0000
  C   C178      1.0  0.67935  0.64702  0.33872  1.0000
  C   C179      1.0  0.70974  0.63713  0.33965  1.0000
  C   C180      1.0  0.73299  0.65923  0.34206  1.0000
  H   H103      1.0  0.66228  0.63139  0.33942  1.0000
  H   H104      1.0  0.75504  0.65224  0.34100  1.0000
  H   H105      1.0  0.69039  0.72190  0.34635  1.0000
  C   C181      1.0  0.28366  0.31856  0.34323  1.0000
  C   C182      1.0  0.31447  0.30971  0.34543  1.0000
  C   C183      1.0  0.33819  0.33114  0.34467  1.0000
  C   C184      1.0  0.33089  0.36216  0.34206  1.0000
  C   C185      1.0  0.30053  0.37222  0.34008  1.0000
  C   C186      1.0  0.27735  0.35001  0.34088  1.0000
  H   H106      1.0  0.34807  0.37768  0.34041  1.0000
  H   H107      1.0  0.25530  0.35693  0.34241  1.0000
  H   H108      1.0  0.31983  0.28720  0.34609  1.0000
  C   C187      1.0  0.44479  0.10387  0.34034  1.0000
  C   C188      1.0  0.41411  0.09518  0.34342  1.0000
  C   C189      1.0  0.40563  0.06443  0.34574  1.0000
  C   C190      1.0  0.42846  0.04218  0.34448  1.0000
  C   C191      1.0  0.45931  0.05029  0.34254  1.0000
  C   C192      1.0  0.46718  0.08118  0.34039  1.0000
  H   H109      1.0  0.42257  0.01981  0.34754  1.0000
  H   H110      1.0  0.48950  0.08723  0.33674  1.0000
  H   H111      1.0  0.39770  0.11149  0.34395  1.0000
  C   C193      1.0  0.56408  0.90594  0.34306  1.0000
  C   C194      1.0  0.59484  0.91436  0.34515  1.0000
  C   C195      1.0  0.60362  0.94504  0.34593  1.0000
  C   C196      1.0  0.58094  0.96744  0.34308  1.0000
  C   C197      1.0  0.55001  0.95962  0.34063  1.0000
  C   C198      1.0  0.54188  0.92878  0.34132  1.0000
  H   H112      1.0  0.58703  0.98978  0.34330  1.0000
  H   H113      1.0  0.51950  0.92287  0.34276  1.0000
  H   H114      1.0  0.61109  0.89788  0.34456  1.0000
  C   C199      1.0  0.90505  0.44490  0.33903  1.0000
  C   C200      1.0  0.91383  0.41424  0.34178  1.0000
  C   C201      1.0  0.94461  0.40584  0.34418  1.0000
  C   C202      1.0  0.96678  0.42875  0.34328  1.0000
  C   C203      1.0  0.95858  0.45957  0.34165  1.0000
  C   C204      1.0  0.92767  0.46736  0.33944  1.0000
  H   H115      1.0  0.98917  0.42292  0.34647  1.0000
  H   H116      1.0  0.92156  0.48966  0.33590  1.0000
  H   H117      1.0  0.89756  0.39778  0.34192  1.0000
  C   C205      1.0  0.10316  0.56374  0.34476  1.0000
  C   C206      1.0  0.09497  0.59457  0.34690  1.0000
  C   C207      1.0  0.06435  0.60358  0.34700  1.0000
  C   C208      1.0  0.04179  0.58106  0.34352  1.0000
  C   C209      1.0  0.04939  0.55008  0.34096  1.0000
  C   C210      1.0  0.08017  0.54172  0.34229  1.0000
  H   H118      1.0  0.01950  0.58731  0.34332  1.0000
  H   H119      1.0  0.08591  0.51929  0.34364  1.0000
  H   H120      1.0  0.11158  0.61069  0.34677  1.0000
  C   C211      1.0  0.32423  0.05917  0.41426  1.0000
  C   C212      1.0  0.35500  0.06721  0.41543  1.0000
  C   C213      1.0  0.37468  0.05606  0.34801  1.0000
  H   H121      1.0  0.31046  0.06714  0.46435  1.0000
  O   O31       1.0  0.36565  0.08416  0.48519  1.0000
  H   H122      1.0  0.35755  0.10468  0.47720  1.0000
  C   C214      1.0  0.68494  0.94984  0.41626  1.0000
  C   C215      1.0  0.65419  0.94171  0.41613  1.0000
  C   C216      1.0  0.63466  0.95319  0.34875  1.0000
  H   H123      1.0  0.69857  0.94161  0.46629  1.0000
  O   O32       1.0  0.64341  0.92441  0.48494  1.0000
  H   H124      1.0  0.65157  0.90394  0.47627  1.0000
  C   C217      1.0  0.95025  0.32439  0.41196  1.0000
  C   C218      1.0  0.94199  0.35510  0.41323  1.0000
  C   C219      1.0  0.95310  0.37493  0.34612  1.0000
  H   H125      1.0  0.94227  0.31052  0.46175  1.0000
  O   O33       1.0  0.92484  0.36556  0.48281  1.0000
  H   H126      1.0  0.90438  0.35736  0.47436  1.0000
  C   C220      1.0  0.05999  0.68495  0.41726  1.0000
  C   C221      1.0  0.06796  0.65416  0.41717  1.0000
  C   C222      1.0  0.05642  0.63468  0.34972  1.0000
  H   H127      1.0  0.06822  0.69853  0.46740  1.0000
  O   O34       1.0  0.08512  0.64328  0.48617  1.0000
  H   H128      1.0  0.10563  0.65136  0.47780  1.0000
  C   C223      1.0  0.15255  0.56521  0.41811  1.0000
  C   C224      1.0  0.18352  0.55803  0.42076  1.0000
  C   C225      1.0  0.19640  0.53978  0.35237  1.0000
  O   O35       1.0  0.20024  0.56747  0.49256  1.0000
  H   H129      1.0  0.14362  0.57803  0.46894  1.0000
  H   H130      1.0  0.20213  0.58955  0.48772  1.0000
  C   C226      1.0  0.86230  0.47243  0.40417  1.0000
  C   C227      1.0  0.83143  0.48003  0.40608  1.0000
  C   C228      1.0  0.81171  0.46881  0.33876  1.0000
  O   O36       1.0  0.82145  0.49786  0.47461  1.0000
  H   H131      1.0  0.87604  0.48041  0.45427  1.0000
  H   H132      1.0  0.81279  0.48418  0.51993  1.0000
  C   C229      1.0  0.56613  0.85620  0.41439  1.0000
  C   C230      1.0  0.55911  0.82519  0.41611  1.0000
  C   C231      1.0  0.54067  0.81251  0.34784  1.0000
  O   O37       1.0  0.56882  0.80823  0.48710  1.0000
  H   H133      1.0  0.57905  0.86499  0.46524  1.0000
  H   H134      1.0  0.59089  0.80643  0.48158  1.0000
  C   C232      1.0  0.47252  0.14639  0.40602  1.0000
  C   C233      1.0  0.48012  0.17725  0.40875  1.0000
  C   C234      1.0  0.46875  0.19722  0.34230  1.0000
  O   O38       1.0  0.49811  0.18699  0.47725  1.0000
  H   H135      1.0  0.48060  0.13248  0.45558  1.0000
  H   H136      1.0  0.48452  0.19546  0.52315  1.0000
  C   C235      1.0  0.19398  0.12601  0.42019  1.0000
  C   C236      1.0  0.20549  0.09624  0.42183  1.0000
  C   C237      1.0  0.20976  0.07993  0.34065  1.0000
  O   O39       1.0  0.21299  0.08378  0.50264  1.0000
  H   H137      1.0  0.19151  0.13742  0.47970  1.0000
  H   H138      1.0  0.23309  0.09169  0.51823  1.0000
  C   C238      1.0  0.82237  0.88652  0.42004  1.0000
  C   C239      1.0  0.81061  0.91621  0.42024  1.0000
  C   C240      1.0  0.79942  0.92928  0.33978  1.0000
  O   O40       1.0  0.80922  0.93148  0.49970  1.0000
  H   H139      1.0  0.82973  0.87738  0.47943  1.0000
  H   H140      1.0  0.79010  0.92552  0.52839  1.0000
  C   C241      1.0  0.88721  0.18682  0.41269  1.0000
  C   C242      1.0  0.91693  0.19854  0.41206  1.0000
  C   C243      1.0  0.92958  0.21027  0.33165  1.0000
  O   O41       1.0  0.93263  0.19941  0.49083  1.0000
  H   H141      1.0  0.87842  0.17907  0.47210  1.0000
  H   H142      1.0  0.92687  0.21836  0.52088  1.0000
  C   C244      1.0  0.12411  0.82108  0.42043  1.0000
  C   C245      1.0  0.09441  0.80936  0.42198  1.0000
  C   C246      1.0  0.08034  0.79965  0.34134  1.0000
  O   O42       1.0  0.08007  0.80664  0.50267  1.0000
  H   H143      1.0  0.13399  0.82739  0.47984  1.0000
  H   H144      1.0  0.08653  0.78719  0.52825  1.0000
  C   C247      1.0  0.29408  0.60067  0.42971  1.0000
  C   C248      1.0  0.30492  0.63063  0.42727  1.0000
  C   C249      1.0  0.32161  0.64108  0.35212  1.0000
  H   H145      1.0  0.28119  0.59416  0.48358  1.0000
  O   O43       1.0  0.29954  0.64901  0.49913  1.0000
  H   H146      1.0  0.27809  0.65474  0.49620  1.0000
  C   C250      1.0  0.69966  0.41620  0.41704  1.0000
  C   C251      1.0  0.68891  0.38615  0.41949  1.0000
  C   C252      1.0  0.68736  0.36880  0.33949  1.0000
  H   H147      1.0  0.70231  0.42760  0.47650  1.0000
  O   O44       1.0  0.68114  0.37402  0.50045  1.0000
  H   H148      1.0  0.69933  0.36387  0.52349  1.0000
  C   C253      1.0  0.59950  0.71235  0.42504  1.0000
  C   C254      1.0  0.62949  0.70159  0.42393  1.0000
  C   C255      1.0  0.64118  0.68740  0.34596  1.0000
  H   H149      1.0  0.59207  0.72361  0.48107  1.0000
  O   O45       1.0  0.64676  0.70483  0.49922  1.0000
  H   H150      1.0  0.65351  0.72600  0.50036  1.0000
  C   C256      1.0  0.41433  0.30550  0.42776  1.0000
  C   C257      1.0  0.38425  0.31620  0.42818  1.0000
  C   C258      1.0  0.36898  0.32179  0.34609  1.0000
  H   H151      1.0  0.42428  0.30011  0.48787  1.0000
  O   O46       1.0  0.37021  0.32048  0.50870  1.0000
  H   H152      1.0  0.36041  0.30119  0.52374  1.0000
  C   C259      1.0  0.23978  0.94841  0.41434  1.0000
  C   C260      1.0  0.23417  0.91700  0.41335  1.0000
  C   C261      1.0  0.21615  0.90399  0.34467  1.0000
  H   H153      1.0  0.25275  0.95705  0.46528  1.0000
  O   O47       1.0  0.24476  0.89987  0.48272  1.0000
  H   H154      1.0  0.26673  0.89812  0.47429  1.0000
  C   C262      1.0  0.76847  0.06168  0.41770  1.0000
  C   C263      1.0  0.77423  0.09307  0.41565  1.0000
  C   C264      1.0  0.79393  0.10550  0.35019  1.0000
  H   H155      1.0  0.75432  0.05354  0.46651  1.0000
  O   O48       1.0  0.76199  0.11077  0.48129  1.0000
  H   H156      1.0  0.74021  0.11214  0.46876  1.0000
  C   C265      1.0  0.06179  0.24096  0.40944  1.0000
  C   C266      1.0  0.09319  0.23530  0.40767  1.0000
  C   C267      1.0  0.10588  0.21626  0.34087  1.0000
  H   H157      1.0  0.05347  0.25461  0.45923  1.0000
  O   O49       1.0  0.11063  0.24686  0.47500  1.0000
  H   H158      1.0  0.11203  0.26875  0.46450  1.0000
  C   C268      1.0  0.94825  0.76836  0.42000  1.0000
  C   C269      1.0  0.91685  0.77407  0.41842  1.0000
  C   C270      1.0  0.90431  0.79380  0.35318  1.0000
  H   H159      1.0  0.95648  0.75420  0.46866  1.0000
  O   O50       1.0  0.89927  0.76180  0.48426  1.0000
  H   H160      1.0  0.89786  0.74003  0.47158  1.0000
  C   C271      1.0  0.30756  0.42408  0.39992  1.0000
  C   C272      1.0  0.30110  0.45536  0.40023  1.0000
  C   C273      1.0  0.28112  0.46797  0.33575  1.0000
  O   O51       1.0  0.31394  0.47268  0.46555  1.0000
  H   H161      1.0  0.32167  0.41575  0.44854  1.0000
  H   H162      1.0  0.29922  0.47365  0.51505  1.0000
  C   C274      1.0  0.73233  0.59279  0.41395  1.0000
  C   C275      1.0  0.73856  0.56151  0.41826  1.0000
  C   C276      1.0  0.72805  0.54165  0.35003  1.0000
  O   O52       1.0  0.75348  0.55047  0.49153  1.0000
  H   H163      1.0  0.73960  0.60637  0.46535  1.0000
  H   H164      1.0  0.77443  0.55777  0.48769  1.0000
  C   C277      1.0  0.42455  0.70191  0.39527  1.0000
  C   C278      1.0  0.45585  0.70823  0.39493  1.0000
  C   C279      1.0  0.46834  0.72828  0.33045  1.0000
  O   O53       1.0  0.47330  0.69520  0.45964  1.0000
  H   H165      1.0  0.41630  0.68778  0.44397  1.0000
  H   H166      1.0  0.47446  0.70983  0.50934  1.0000
  C   C280      1.0  0.59352  0.27548  0.41607  1.0000
  C   C281      1.0  0.56233  0.26876  0.42060  1.0000
  C   C282      1.0  0.54190  0.28066  0.35590  1.0000
  O   O54       1.0  0.55194  0.25203  0.49122  1.0000
  H   H167      1.0  0.60747  0.26711  0.46504  1.0000
  H   H168      1.0  0.55984  0.23142  0.48349  1.0000
  C   C283      1.0  0.26016  0.27244  0.40761  1.0000
  C   C284      1.0  0.23798  0.24940  0.40801  1.0000
  C   C285      1.0  0.21391  0.24954  0.34474  1.0000
  O   O55       1.0  0.23889  0.22830  0.47480  1.0000
  H   H169      1.0  0.27667  0.27183  0.45581  1.0000
  H   H170      1.0  0.25665  0.21551  0.46332  1.0000
  C   C286      1.0  0.77434  0.71220  0.40279  1.0000
  C   C287      1.0  0.79695  0.73482  0.40537  1.0000
  C   C288      1.0  0.79674  0.75929  0.34334  1.0000
  O   O56       1.0  0.81849  0.73254  0.47042  1.0000
  H   H171      1.0  0.77506  0.69531  0.44980  1.0000
  H   H172      1.0  0.81220  0.74608  0.51941  1.0000
  C   C289      1.0  0.71280  0.23582  0.40037  1.0000
  C   C290      1.0  0.73537  0.21315  0.40242  1.0000
  C   C291      1.0  0.75952  0.21315  0.33936  1.0000
  O   O57       1.0  0.73336  0.19177  0.46804  1.0000
  H   H173      1.0  0.69617  0.23525  0.44821  1.0000
  H   H174      1.0  0.74709  0.19820  0.51642  1.0000
  C   C292      1.0  0.27309  0.75004  0.40926  1.0000
  C   C293      1.0  0.24993  0.77210  0.40998  1.0000
  C   C294      1.0  0.24999  0.79627  0.34710  1.0000
  O   O58       1.0  0.22877  0.77092  0.47656  1.0000
  H   H175      1.0  0.27251  0.73344  0.45718  1.0000
  H   H176      1.0  0.21604  0.75316  0.46445  1.0000
  C   C295      1.0  0.52757  0.00505  0.40658  1.0000
  C   C296      1.0  0.50510  0.02749  0.40881  1.0000
  C   C297      1.0  0.48204  0.02776  0.34264  1.0000
  O   O59       1.0  0.50636  0.04836  0.47606  1.0000
  H   H177      1.0  0.54375  0.00502  0.45586  1.0000
  H   H178      1.0  0.49171  0.04185  0.52185  1.0000
  C   C298      1.0  0.00375  0.52783  0.40611  1.0000
  C   C299      1.0  0.98128  0.50538  0.40807  1.0000
  C   C300      1.0  0.98106  0.48235  0.34183  1.0000
  O   O60       1.0  0.96038  0.50661  0.47524  1.0000
  H   H179      1.0  0.00380  0.54395  0.45554  1.0000
  H   H180      1.0  0.96689  0.49196  0.52105  1.0000
