data_image0
_chemical_formula_structural       C3O2HNC3H2CNC2O2HCNC2O2HNC21H13C24H15NC3O2HNC3O2HC3O2H
_chemical_formula_sum              "C66 O12 H36 N6"
_cell_length_a       29.7739
_cell_length_b       29.7738
_cell_length_c       14.8161
_cell_angle_alpha    90
_cell_angle_beta     90
_cell_angle_gamma    120

_space_group_name_H-M_alt    "P 1"
_space_group_IT_number       1

loop_
  _space_group_symop_operation_xyz
  'x, y, z'

loop_
  _atom_site_type_symbol
  _atom_site_label
  _atom_site_symmetry_multiplicity
  _atom_site_fract_x
  _atom_site_fract_y
  _atom_site_fract_z
  _atom_site_occupancy
  C   C1        1.0  0.06400  0.53299  0.33885  1.0000
  C   C2        1.0  0.03206  0.52370  0.26182  1.0000
  C   C3        1.0  0.05049  0.53761  0.17435  1.0000
  O   O1        1.0  0.02927  0.55417  0.12468  1.0000
  O   O2        1.0  0.07268  0.51762  0.13474  1.0000
  H   H1        1.0  0.08606  0.50029  0.16126  1.0000
  N   N1        1.0  0.03892  0.51344  0.41843  1.0000
  C   C4        1.0  0.14731  0.54473  0.39554  1.0000
  C   C5        1.0  0.11952  0.56136  0.34047  1.0000
  C   C6        1.0  0.14877  0.60758  0.29047  1.0000
  H   H2        1.0  0.12796  0.51174  0.43361  1.0000
  H   H3        1.0  0.13061  0.62247  0.25241  1.0000
  C   C7        1.0  0.48248  0.53406  0.33885  1.0000
  N   N2        1.0  0.51975  0.48706  0.27349  1.0000
  C   C8        1.0  0.49224  0.51186  0.26169  1.0000
  C   C9        1.0  0.47873  0.51687  0.17415  1.0000
  O   O3        1.0  0.46232  0.47907  0.12455  1.0000
  O   O4        1.0  0.49930  0.55911  0.13479  1.0000
  H   H4        1.0  0.51656  0.58972  0.16163  1.0000
  C   C10       1.0  0.48138  0.95157  0.33926  1.0000
  N   N3        1.0  0.52836  0.03580  0.27375  1.0000
  C   C11       1.0  0.50352  0.98349  0.26203  1.0000
  C   C12       1.0  0.49858  0.96502  0.17450  1.0000
  O   O5        1.0  0.53607  0.98628  0.12422  1.0000
  O   O6        1.0  0.45618  0.94271  0.13558  1.0000
  H   H5        1.0  0.42562  0.92929  0.16263  1.0000
  N   N4        1.0  0.97975  0.49613  0.27354  1.0000
  C   C13       1.0  0.28707  0.64545  0.34823  1.0000
  C   C14       1.0  0.31524  0.61867  0.34815  1.0000
  C   C15       1.0  0.37016  0.64478  0.34809  1.0000
  C   C16       1.0  0.39694  0.69972  0.34832  1.0000
  C   C17       1.0  0.37084  0.72854  0.34840  1.0000
  C   C18       1.0  0.31589  0.70037  0.34848  1.0000
  C   C19       1.0  0.39779  0.61665  0.34637  1.0000
  C   C20       1.0  0.38084  0.57178  0.29227  1.0000
  C   C21       1.0  0.40815  0.54449  0.28989  1.0000
  C   C22       1.0  0.45418  0.56128  0.34038  1.0000
  C   C23       1.0  0.47067  0.60553  0.39580  1.0000
  C   C24       1.0  0.44320  0.63266  0.39853  1.0000
  C   C25       1.0  0.23130  0.61782  0.34657  1.0000
  C   C26       1.0  0.20191  0.57223  0.39833  1.0000
  C   C27       1.0  0.20336  0.63491  0.29288  1.0000
  C   C28       1.0  0.39896  0.78430  0.34684  1.0000
  C   C29       1.0  0.38293  0.81365  0.39904  1.0000
  C   C30       1.0  0.41001  0.86826  0.39632  1.0000
  C   C31       1.0  0.45425  0.89606  0.34088  1.0000
  C   C32       1.0  0.47108  0.86685  0.29039  1.0000
  C   C33       1.0  0.44385  0.81226  0.29278  1.0000
  H   H6        1.0  0.22003  0.55879  0.43996  1.0000
  H   H7        1.0  0.22256  0.66735  0.25351  1.0000
  H   H8        1.0  0.35146  0.79551  0.44090  1.0000
  H   H9        1.0  0.39650  0.88760  0.43471  1.0000
  H   H10       1.0  0.45694  0.79306  0.25306  1.0000
  H   H11       1.0  0.50399  0.88503  0.25200  1.0000
  H   H12       1.0  0.45652  0.66410  0.44044  1.0000
  H   H13       1.0  0.50352  0.61901  0.43421  1.0000
  H   H14       1.0  0.39338  0.51157  0.25151  1.0000
  H   H15       1.0  0.34853  0.55869  0.25262  1.0000
  H   H16       1.0  0.29517  0.57900  0.34761  1.0000
  H   H17       1.0  0.29630  0.72046  0.34820  1.0000
  H   H18       1.0  0.43662  0.71932  0.34791  1.0000
  C   C34       1.0  0.73158  0.36644  0.34500  1.0000
  C   C35       1.0  0.70398  0.39379  0.34512  1.0000
  C   C36       1.0  0.64907  0.36829  0.34517  1.0000
  C   C37       1.0  0.62171  0.31334  0.34505  1.0000
  C   C38       1.0  0.64721  0.28394  0.34498  1.0000
  C   C39       1.0  0.70216  0.31153  0.34481  1.0000
  C   C40       1.0  0.62203  0.39700  0.34653  1.0000
  C   C41       1.0  0.63952  0.44214  0.40014  1.0000
  C   C42       1.0  0.61272  0.46994  0.40222  1.0000
  C   C43       1.0  0.56671  0.45345  0.35183  1.0000
  C   C44       1.0  0.54970  0.40896  0.29684  1.0000
  C   C45       1.0  0.57666  0.38132  0.29442  1.0000
  C   C46       1.0  0.78736  0.39346  0.34631  1.0000
  C   C47       1.0  0.81708  0.43910  0.29485  1.0000
  C   C48       1.0  0.87168  0.46602  0.29728  1.0000
  C   C49       1.0  0.89916  0.44872  0.35163  1.0000
  C   C50       1.0  0.86960  0.40243  0.40130  1.0000
  C   C51       1.0  0.81500  0.37569  0.39926  1.0000
  C   C52       1.0  0.61849  0.22818  0.34639  1.0000
  C   C53       1.0  0.63412  0.19845  0.29431  1.0000
  C   C54       1.0  0.60647  0.14386  0.29684  1.0000
  C   C55       1.0  0.56202  0.11641  0.35195  1.0000
  C   C56       1.0  0.54559  0.14598  0.40234  1.0000
  C   C57       1.0  0.57339  0.20058  0.40012  1.0000
  H   H19       1.0  0.89128  0.49912  0.25955  1.0000
  H   H20       1.0  0.79922  0.45303  0.25369  1.0000
  H   H21       1.0  0.88752  0.38712  0.43891  1.0000
  H   H22       1.0  0.79558  0.34320  0.43843  1.0000
  H   H23       1.0  0.66569  0.21632  0.25262  1.0000
  H   H24       1.0  0.61973  0.12424  0.25857  1.0000
  H   H25       1.0  0.56056  0.22004  0.43974  1.0000
  H   H26       1.0  0.51257  0.12807  0.44050  1.0000
  H   H27       1.0  0.56297  0.34972  0.25282  1.0000
  H   H28       1.0  0.51682  0.39566  0.25858  1.0000
  H   H29       1.0  0.62781  0.50298  0.44032  1.0000
  H   H30       1.0  0.67182  0.45502  0.43974  1.0000
  H   H31       1.0  0.72445  0.43346  0.34558  1.0000
  H   H32       1.0  0.72132  0.29102  0.34499  1.0000
  H   H33       1.0  0.58205  0.29416  0.34545  1.0000
  N   N5        1.0  0.50154  0.52806  0.41863  1.0000
  C   C58       1.0  0.52907  0.50329  0.43042  1.0000
  C   C59       1.0  0.53874  0.48100  0.35328  1.0000
  C   C60       1.0  0.54277  0.49857  0.51795  1.0000
  O   O7        1.0  0.55898  0.53614  0.56803  1.0000
  O   O8        1.0  0.52301  0.45625  0.55709  1.0000
  H   H34       1.0  0.50588  0.42562  0.53023  1.0000
  N   N6        1.0  0.48738  0.97666  0.41899  1.0000
  C   C61       1.0  0.51211  0.02899  0.43066  1.0000
  C   C62       1.0  0.53444  0.06090  0.35349  1.0000
  C   C63       1.0  0.51691  0.04744  0.51823  1.0000
  O   O9        1.0  0.47905  0.02644  0.56772  1.0000
  O   O10       1.0  0.55929  0.06986  0.55718  1.0000
  H   H35       1.0  0.58987  0.08308  0.53027  1.0000
  C   C64       1.0  0.98660  0.48581  0.43014  1.0000
  C   C65       1.0  0.95467  0.47665  0.35314  1.0000
  C   C66       1.0  0.96817  0.47157  0.51754  1.0000
  O   O11       1.0  0.98949  0.45501  0.56693  1.0000
  O   O12       1.0  0.94553  0.49101  0.55742  1.0000
  H   H36       1.0  0.93204  0.50831  0.53116  1.0000
