data_image0
_chemical_formula_structural       C2NC2H3CNC3H3C2NC4H2C4NC34H19N4C3NC3NC5NC5NC36H26N4C3NC3NC5NC5NC36H26N4C6H4CHC6H4CHC6H4CHC6H4CHC6H4CHC6H4CHC16H15C16H16C16H16C4H2C2H2CHC4H2C2H2CHC4H2C2H2CHC4H2C2H2CHC4H2C2H2CHC4H2C2H2CH
_chemical_formula_sum              "C288 N24 H186"
_cell_length_a       75.4691
_cell_length_b       75.4691
_cell_length_c       14.9572
_cell_angle_alpha    89.8518
_cell_angle_beta     90.1482
_cell_angle_gamma    120

_space_group_name_H-M_alt    "P 1"
_space_group_IT_number       1

loop_
  _space_group_symop_operation_xyz
  'x, y, z'

loop_
  _atom_site_type_symbol
  _atom_site_label
  _atom_site_symmetry_multiplicity
  _atom_site_fract_x
  _atom_site_fract_y
  _atom_site_fract_z
  _atom_site_occupancy
  C   C1        1.0  0.01943  0.49392  0.31238  1.0000
  C   C2        1.0  0.01236  0.50787  0.31257  1.0000
  N   N1        1.0  0.02824  0.58247  0.31193  1.0000
  C   C3        1.0  0.01076  0.58343  0.31166  1.0000
  C   C4        1.0  0.01711  0.60429  0.31165  1.0000
  H   H1        1.0  0.01083  0.47831  0.31287  1.0000
  H   H2        1.0  0.02850  0.56989  0.31223  1.0000
  H   H3        1.0  0.00805  0.61080  0.31146  1.0000
  C   C5        1.0  0.04055  0.50481  0.31140  1.0000
  N   N2        1.0  0.02942  0.52662  0.31187  1.0000
  C   C6        1.0  0.04690  0.52567  0.31152  1.0000
  C   C7        1.0  0.04530  0.60123  0.31267  1.0000
  C   C8        1.0  0.03823  0.61518  0.31261  1.0000
  H   H4        1.0  0.04961  0.49830  0.31118  1.0000
  H   H5        1.0  0.02916  0.53921  0.31231  1.0000
  H   H6        1.0  0.04683  0.63079  0.31318  1.0000
  C   C9        1.0  0.06763  0.54181  0.31138  1.0000
  C   C10       1.0  0.07400  0.56299  0.31188  1.0000
  N   N3        1.0  0.06212  0.57171  0.31203  1.0000
  C   C11       1.0  0.07337  0.59236  0.31316  1.0000
  C   C12       1.0  0.06625  0.60658  0.31370  1.0000
  C   C13       1.0  0.08132  0.62776  0.31596  1.0000
  C   C14       1.0  0.08327  0.53645  0.31191  1.0000
  H   H7        1.0  0.08247  0.63240  0.17564  1.0000
  H   H8        1.0  0.08359  0.53290  0.45258  1.0000
  C   C15       1.0  0.09382  0.59720  0.31354  1.0000
  C   C16       1.0  0.09421  0.57912  0.31289  1.0000
  C   C17       1.0  0.99003  0.56730  0.31154  1.0000
  C   C18       1.0  0.98366  0.54612  0.31195  1.0000
  N   N4        1.0  0.99554  0.53739  0.31201  1.0000
  C   C19       1.0  0.98429  0.51674  0.31319  1.0000
  C   C20       1.0  0.96384  0.51190  0.31373  1.0000
  C   C21       1.0  0.96345  0.52999  0.31311  1.0000
  C   C22       1.0  0.99141  0.50252  0.31368  1.0000
  C   C23       1.0  0.97633  0.48134  0.31596  1.0000
  C   C24       1.0  0.94427  0.43960  0.32005  1.0000
  C   C25       1.0  0.95319  0.44950  0.23813  1.0000
  C   C26       1.0  0.96893  0.47009  0.23595  1.0000
  C   C27       1.0  0.92763  0.41897  0.32169  1.0000
  C   C28       1.0  0.92781  0.40361  0.26819  1.0000
  C   C29       1.0  0.91115  0.38344  0.26800  1.0000
  C   C30       1.0  0.89366  0.37797  0.32105  1.0000
  C   C31       1.0  0.97441  0.57267  0.31220  1.0000
  C   C32       1.0  0.94214  0.58206  0.31442  1.0000
  C   C33       1.0  0.94890  0.57782  0.23316  1.0000
  C   C34       1.0  0.96482  0.57322  0.23190  1.0000
  C   C35       1.0  0.92570  0.58635  0.31589  1.0000
  C   C36       1.0  0.89242  0.59442  0.32134  1.0000
  C   C37       1.0  0.89132  0.57851  0.26802  1.0000
  C   C38       1.0  0.90765  0.57452  0.26533  1.0000
  C   C39       1.0  0.08839  0.63916  0.23603  1.0000
  C   C40       1.0  0.10397  0.65982  0.23822  1.0000
  C   C41       1.0  0.11306  0.66963  0.32003  1.0000
  C   C42       1.0  0.12948  0.69037  0.32166  1.0000
  C   C43       1.0  0.16297  0.73163  0.32124  1.0000
  C   C44       1.0  0.14525  0.72598  0.26916  1.0000
  C   C45       1.0  0.12884  0.70569  0.26924  1.0000
  C   C46       1.0  0.09276  0.53594  0.23154  1.0000
  C   C47       1.0  0.11586  0.52752  0.31404  1.0000
  C   C48       1.0  0.10884  0.53157  0.23275  1.0000
  C   C49       1.0  0.13252  0.52356  0.31551  1.0000
  C   C50       1.0  0.15043  0.53555  0.26447  1.0000
  C   C51       1.0  0.16699  0.53191  0.26722  1.0000
  C   C52       1.0  0.16627  0.51621  0.32116  1.0000
  H   H9        1.0  0.17976  0.54105  0.23009  1.0000
  H   H10       1.0  0.15180  0.54743  0.22614  1.0000
  H   H11       1.0  0.11529  0.53121  0.17317  1.0000
  H   H12       1.0  0.08816  0.53893  0.17170  1.0000
  H   H13       1.0  0.10725  0.57815  0.31332  1.0000
  H   H14       1.0  0.10653  0.61145  0.31422  1.0000
  H   H15       1.0  0.10911  0.66744  0.17879  1.0000
  H   H16       1.0  0.95113  0.49766  0.31457  1.0000
  H   H17       1.0  0.95042  0.53096  0.31371  1.0000
  H   H18       1.0  0.96927  0.57014  0.17208  1.0000
  H   H19       1.0  0.94240  0.57823  0.17363  1.0000
  H   H20       1.0  0.90599  0.56251  0.22744  1.0000
  H   H21       1.0  0.87844  0.56949  0.23122  1.0000
  H   H22       1.0  0.97468  0.47693  0.17549  1.0000
  H   H23       1.0  0.94779  0.44201  0.17866  1.0000
  H   H24       1.0  0.91198  0.37285  0.22851  1.0000
  H   H25       1.0  0.94022  0.40691  0.22925  1.0000
  H   H26       1.0  0.11625  0.70226  0.23107  1.0000
  H   H27       1.0  0.14409  0.73654  0.23049  1.0000
  N   N5        1.0  0.87705  0.35941  0.32335  1.0000
  N   N6        1.0  0.18267  0.51389  0.32041  1.0000
  N   N7        1.0  0.17936  0.75033  0.32362  1.0000
  N   N8        1.0  0.87624  0.59709  0.32049  1.0000
  C   C53       1.0  0.58025  0.61936  0.31395  1.0000
  C   C54       1.0  0.59114  0.60912  0.31493  1.0000
  C   C55       1.0  0.57720  0.58811  0.31501  1.0000
  N   N9        1.0  0.55844  0.58642  0.31426  1.0000
  C   C56       1.0  0.55939  0.60485  0.31391  1.0000
  C   C57       1.0  0.54326  0.60944  0.31367  1.0000
  C   C58       1.0  0.52208  0.59463  0.31412  1.0000
  N   N10       1.0  0.51335  0.57403  0.31435  1.0000
  C   C59       1.0  0.49270  0.56463  0.31546  1.0000
  C   C60       1.0  0.48786  0.58024  0.31575  1.0000
  C   C61       1.0  0.50595  0.59871  0.31507  1.0000
  C   C62       1.0  0.47848  0.54328  0.31606  1.0000
  C   C63       1.0  0.48383  0.52768  0.31501  1.0000
  N   N11       1.0  0.50259  0.52938  0.31421  1.0000
  C   C64       1.0  0.50163  0.51095  0.31396  1.0000
  C   C65       1.0  0.48078  0.49644  0.31402  1.0000
  C   C66       1.0  0.46989  0.50667  0.31503  1.0000
  C   C67       1.0  0.51777  0.50635  0.31380  1.0000
  C   C68       1.0  0.53895  0.52116  0.31420  1.0000
  N   N12       1.0  0.54767  0.54176  0.31433  1.0000
  C   C69       1.0  0.56832  0.55117  0.31548  1.0000
  C   C70       1.0  0.57316  0.53555  0.31593  1.0000
  C   C71       1.0  0.55508  0.51708  0.31529  1.0000
  C   C72       1.0  0.58255  0.57251  0.31603  1.0000
  C   C73       1.0  0.60372  0.57860  0.31831  1.0000
  C   C74       1.0  0.64546  0.58830  0.32237  1.0000
  C   C75       1.0  0.63557  0.58741  0.24047  1.0000
  C   C76       1.0  0.61498  0.58257  0.23829  1.0000
  C   C77       1.0  0.66610  0.59230  0.32399  1.0000
  C   C78       1.0  0.68146  0.60791  0.27054  1.0000
  C   C79       1.0  0.70163  0.61143  0.27024  1.0000
  C   C80       1.0  0.70710  0.59932  0.32312  1.0000
  C   C81       1.0  0.51240  0.48536  0.31444  1.0000
  C   C82       1.0  0.50300  0.44369  0.31663  1.0000
  C   C83       1.0  0.50724  0.45478  0.23538  1.0000
  C   C84       1.0  0.51183  0.47530  0.23414  1.0000
  C   C85       1.0  0.49871  0.42296  0.31808  1.0000
  C   C86       1.0  0.49064  0.38161  0.32349  1.0000
  C   C87       1.0  0.50655  0.39647  0.27015  1.0000
  C   C88       1.0  0.51054  0.41679  0.26753  1.0000
  C   C89       1.0  0.45730  0.53717  0.31833  1.0000
  C   C90       1.0  0.44590  0.53289  0.23841  1.0000
  C   C91       1.0  0.42524  0.52783  0.24059  1.0000
  C   C92       1.0  0.41543  0.52702  0.32240  1.0000
  C   C93       1.0  0.39468  0.52268  0.32401  1.0000
  C   C94       1.0  0.35342  0.51490  0.32336  1.0000
  C   C95       1.0  0.35908  0.50287  0.27144  1.0000
  C   C96       1.0  0.37937  0.50675  0.27165  1.0000
  C   C97       1.0  0.54861  0.63043  0.31417  1.0000
  C   C98       1.0  0.54913  0.64052  0.23378  1.0000
  C   C99       1.0  0.55754  0.67195  0.31625  1.0000
  C   C100      1.0  0.55350  0.66097  0.23497  1.0000
  C   C101      1.0  0.56151  0.69258  0.31770  1.0000
  C   C102      1.0  0.54952  0.69854  0.26665  1.0000
  C   C103      1.0  0.55316  0.71874  0.26939  1.0000
  C   C104      1.0  0.56886  0.73367  0.32331  1.0000
  H   H28       1.0  0.54402  0.72241  0.23224  1.0000
  H   H29       1.0  0.53764  0.68808  0.22832  1.0000
  H   H30       1.0  0.55386  0.66784  0.17538  1.0000
  H   H31       1.0  0.54614  0.63299  0.17395  1.0000
  H   H32       1.0  0.58676  0.63493  0.31368  1.0000
  H   H33       1.0  0.60675  0.61614  0.31543  1.0000
  H   H34       1.0  0.54586  0.57357  0.31443  1.0000
  H   H35       1.0  0.51517  0.54223  0.31445  1.0000
  H   H36       1.0  0.50691  0.61271  0.31545  1.0000
  H   H37       1.0  0.47362  0.57870  0.31641  1.0000
  H   H38       1.0  0.45266  0.53378  0.17802  1.0000
  H   H39       1.0  0.41761  0.52536  0.18117  1.0000
  H   H40       1.0  0.45427  0.49966  0.31569  1.0000
  H   H41       1.0  0.47426  0.48087  0.31393  1.0000
  H   H42       1.0  0.58740  0.53708  0.31671  1.0000
  H   H43       1.0  0.55411  0.50308  0.31581  1.0000
  H   H44       1.0  0.51491  0.48289  0.17432  1.0000
  H   H45       1.0  0.50682  0.44793  0.17584  1.0000
  H   H46       1.0  0.52254  0.42718  0.22958  1.0000
  H   H47       1.0  0.51556  0.39265  0.23335  1.0000
  H   H48       1.0  0.60814  0.58156  0.17785  1.0000
  H   H49       1.0  0.64307  0.58960  0.18100  1.0000
  H   H50       1.0  0.71221  0.62289  0.23077  1.0000
  H   H51       1.0  0.67815  0.61707  0.23172  1.0000
  H   H52       1.0  0.38281  0.49763  0.23354  1.0000
  H   H53       1.0  0.34853  0.49119  0.23277  1.0000
  N   N13       1.0  0.72566  0.60127  0.32523  1.0000
  N   N14       1.0  0.57118  0.75239  0.32256  1.0000
  N   N15       1.0  0.33472  0.51261  0.32550  1.0000
  N   N16       1.0  0.48797  0.36276  0.32263  1.0000
  C   C105      1.0  0.46570  0.04449  0.31582  1.0000
  C   C106      1.0  0.47593  0.06561  0.31695  1.0000
  C   C107      1.0  0.49694  0.07269  0.31717  1.0000
  N   N17       1.0  0.49864  0.05563  0.31639  1.0000
  C   C108      1.0  0.48022  0.03815  0.31588  1.0000
  C   C109      1.0  0.47563  0.01742  0.31556  1.0000
  C   C110      1.0  0.49045  0.01106  0.31615  1.0000
  N   N18       1.0  0.51105  0.02294  0.31649  1.0000
  C   C111      1.0  0.52046  0.01170  0.31771  1.0000
  C   C112      1.0  0.50485  0.99125  0.31798  1.0000
  C   C113      1.0  0.48637  0.99085  0.31714  1.0000
  C   C114      1.0  0.54180  0.01883  0.31834  1.0000
  C   C115      1.0  0.55740  0.03978  0.31721  1.0000
  N   N19       1.0  0.55569  0.05684  0.31644  1.0000
  C   C116      1.0  0.57412  0.07432  0.31602  1.0000
  C   C117      1.0  0.58864  0.06798  0.31594  1.0000
  C   C118      1.0  0.57841  0.04686  0.31707  1.0000
  C   C119      1.0  0.57871  0.09505  0.31581  1.0000
  C   C120      1.0  0.56390  0.10141  0.31635  1.0000
  N   N20       1.0  0.54329  0.08953  0.31653  1.0000
  C   C121      1.0  0.53389  0.10077  0.31775  1.0000
  C   C122      1.0  0.54949  0.12122  0.31820  1.0000
  C   C123      1.0  0.56797  0.12162  0.31746  1.0000
  C   C124      1.0  0.51254  0.09364  0.31831  1.0000
  C   C125      1.0  0.50644  0.10872  0.32058  1.0000
  C   C126      1.0  0.49675  0.14076  0.32465  1.0000
  C   C127      1.0  0.49764  0.13184  0.24275  1.0000
  C   C128      1.0  0.50248  0.11609  0.24057  1.0000
  C   C129      1.0  0.49275  0.15740  0.32627  1.0000
  C   C130      1.0  0.47713  0.15720  0.27280  1.0000
  C   C131      1.0  0.47362  0.17385  0.27249  1.0000
  C   C132      1.0  0.48572  0.19137  0.32538  1.0000
  C   C133      1.0  0.59970  0.11068  0.31609  1.0000
  C   C134      1.0  0.64136  0.14295  0.31749  1.0000
  C   C135      1.0  0.63020  0.13615  0.23646  1.0000
  C   C136      1.0  0.60968  0.12022  0.23560  1.0000
  C   C137      1.0  0.66210  0.15939  0.31854  1.0000
  C   C138      1.0  0.70347  0.19264  0.32303  1.0000
  C   C139      1.0  0.68855  0.19373  0.27007  1.0000
  C   C140      1.0  0.66822  0.17741  0.26786  1.0000
  C   C141      1.0  0.54792  0.00376  0.32062  1.0000
  C   C142      1.0  0.55220  0.99672  0.24070  1.0000
  C   C143      1.0  0.55727  0.98113  0.24287  1.0000
  C   C144      1.0  0.55807  0.97204  0.32468  1.0000
  C   C145      1.0  0.56240  0.95562  0.32629  1.0000
  C   C146      1.0  0.57016  0.92213  0.32559  1.0000
  C   C147      1.0  0.58220  0.93987  0.27367  1.0000
  C   C148      1.0  0.57833  0.95629  0.27388  1.0000
  C   C149      1.0  0.45464  0.00178  0.31574  1.0000
  C   C150      1.0  0.44462  0.99233  0.23517  1.0000
  C   C151      1.0  0.41312  0.96918  0.31709  1.0000
  C   C152      1.0  0.42418  0.97624  0.23600  1.0000
  C   C153      1.0  0.39250  0.95252  0.31815  1.0000
  C   C154      1.0  0.38658  0.93464  0.26696  1.0000
  C   C155      1.0  0.36638  0.91808  0.26932  1.0000
  C   C156      1.0  0.35138  0.91878  0.32289  1.0000
  H   H54       1.0  0.36274  0.90534  0.23206  1.0000
  H   H55       1.0  0.39708  0.93328  0.22887  1.0000
  H   H56       1.0  0.41737  0.96983  0.17629  1.0000
  H   H57       1.0  0.45221  0.99696  0.17547  1.0000
  H   H58       1.0  0.45013  0.03543  0.31546  1.0000
  H   H59       1.0  0.46891  0.07421  0.31743  1.0000
  H   H60       1.0  0.51149  0.05590  0.31672  1.0000
  H   H61       1.0  0.54284  0.05657  0.31683  1.0000
  H   H62       1.0  0.47238  0.97781  0.31750  1.0000
  H   H63       1.0  0.50639  0.97854  0.31869  1.0000
  H   H64       1.0  0.55129  0.00263  0.18030  1.0000
  H   H65       1.0  0.55971  0.97601  0.18344  1.0000
  H   H66       1.0  0.58543  0.03826  0.31765  1.0000
  H   H67       1.0  0.60421  0.07704  0.31572  1.0000
  H   H68       1.0  0.54796  0.13393  0.31901  1.0000
  H   H69       1.0  0.58197  0.13465  0.31796  1.0000
  H   H70       1.0  0.60203  0.11573  0.17592  1.0000
  H   H71       1.0  0.63699  0.14261  0.17679  1.0000
  H   H72       1.0  0.65778  0.17905  0.23020  1.0000
  H   H73       1.0  0.69233  0.20660  0.23321  1.0000
  H   H74       1.0  0.50350  0.11033  0.18012  1.0000
  H   H75       1.0  0.49545  0.13721  0.18328  1.0000
  H   H76       1.0  0.46216  0.17301  0.23301  1.0000
  H   H77       1.0  0.46798  0.14477  0.23396  1.0000
  H   H78       1.0  0.58745  0.96889  0.23579  1.0000
  H   H79       1.0  0.59388  0.94104  0.23498  1.0000
  N   N21       1.0  0.48379  0.20799  0.32746  1.0000
  N   N22       1.0  0.33266  0.90239  0.32172  1.0000
  N   N23       1.0  0.57245  0.90572  0.32772  1.0000
  N   N24       1.0  0.72232  0.20882  0.32173  1.0000
  C   C157      1.0  0.21791  0.51060  0.27418  1.0000
  C   C158      1.0  0.23636  0.51048  0.26248  1.0000
  C   C159      1.0  0.26307  0.50326  0.31900  1.0000
  C   C160      1.0  0.26701  0.49598  0.23864  1.0000
  C   C161      1.0  0.28524  0.49546  0.22681  1.0000
  C   C162      1.0  0.30036  0.50235  0.29460  1.0000
  H   H80       1.0  0.25640  0.49054  0.18825  1.0000
  H   H81       1.0  0.28735  0.48997  0.16760  1.0000
  H   H82       1.0  0.21267  0.51568  0.22254  1.0000
  H   H83       1.0  0.24403  0.51580  0.20334  1.0000
  C   C163      1.0  0.31820  0.50156  0.28077  1.0000
  H   H84       1.0  0.31832  0.49261  0.23242  1.0000
  C   C164      1.0  0.57447  0.79096  0.27632  1.0000
  C   C165      1.0  0.57459  0.80955  0.26463  1.0000
  C   C166      1.0  0.58180  0.84342  0.32116  1.0000
  C   C167      1.0  0.58908  0.85472  0.24081  1.0000
  C   C168      1.0  0.58960  0.87348  0.22898  1.0000
  C   C169      1.0  0.58270  0.88164  0.29676  1.0000
  H   H85       1.0  0.59452  0.84961  0.19042  1.0000
  H   H86       1.0  0.59508  0.88114  0.16979  1.0000
  H   H87       1.0  0.56939  0.78071  0.22468  1.0000
  H   H88       1.0  0.56927  0.81197  0.20548  1.0000
  C   C170      1.0  0.58349  0.90029  0.28294  1.0000
  H   H89       1.0  0.59243  0.90940  0.23458  1.0000
  C   C171      1.0  0.29414  0.86719  0.27450  1.0000
  C   C172      1.0  0.27557  0.84875  0.26242  1.0000
  C   C173      1.0  0.24163  0.82200  0.31821  1.0000
  C   C174      1.0  0.23042  0.81809  0.23761  1.0000
  C   C175      1.0  0.21168  0.79986  0.22543  1.0000
  C   C176      1.0  0.20345  0.78471  0.29308  1.0000
  H   H90       1.0  0.23559  0.82872  0.18730  1.0000
  H   H91       1.0  0.20408  0.79776  0.16606  1.0000
  H   H92       1.0  0.30446  0.87245  0.22310  1.0000
  H   H93       1.0  0.27323  0.84109  0.20325  1.0000
  C   C177      1.0  0.18482  0.76687  0.27893  1.0000
  H   H94       1.0  0.17575  0.76676  0.23040  1.0000
  C   C178      1.0  0.84141  0.60113  0.27370  1.0000
  C   C179      1.0  0.82311  0.60157  0.26192  1.0000
  C   C180      1.0  0.79680  0.60930  0.31822  1.0000
  C   C181      1.0  0.79294  0.61668  0.23767  1.0000
  C   C182      1.0  0.77485  0.61749  0.22572  1.0000
  C   C183      1.0  0.75981  0.61082  0.29356  1.0000
  H   H95       1.0  0.80350  0.62197  0.18723  1.0000
  H   H96       1.0  0.77280  0.62304  0.16636  1.0000
  H   H97       1.0  0.84647  0.59593  0.22213  1.0000
  H   H98       1.0  0.81537  0.59634  0.20283  1.0000
  C   C184      1.0  0.74210  0.61190  0.27953  1.0000
  H   H99       1.0  0.74202  0.62073  0.23033  1.0000
  C   C185      1.0  0.48393  0.32394  0.27585  1.0000
  C   C186      1.0  0.48349  0.30521  0.26408  1.0000
  C   C187      1.0  0.47576  0.27111  0.32039  1.0000
  C   C188      1.0  0.46839  0.25995  0.23985  1.0000
  C   C189      1.0  0.46757  0.24106  0.22789  1.0000
  C   C190      1.0  0.47424  0.23262  0.29575  1.0000
  H   H100      1.0  0.46310  0.26527  0.18939  1.0000
  H   H101      1.0  0.46203  0.23353  0.16854  1.0000
  H   H102      1.0  0.48913  0.33425  0.22429  1.0000
  H   H103      1.0  0.48872  0.30275  0.20499  1.0000
  C   C191      1.0  0.47316  0.21385  0.28174  1.0000
  H   H104      1.0  0.46434  0.20499  0.23253  1.0000
  C   C192      1.0  0.76109  0.24361  0.27396  1.0000
  C   C193      1.0  0.77980  0.26191  0.26182  1.0000
  C   C194      1.0  0.81396  0.28826  0.31741  1.0000
  C   C195      1.0  0.82504  0.29209  0.23666  1.0000
  C   C196      1.0  0.84391  0.31017  0.22437  1.0000
  C   C197      1.0  0.85242  0.32525  0.29209  1.0000
  H   H105      1.0  0.81967  0.28151  0.18629  1.0000
  H   H106      1.0  0.85140  0.31221  0.16488  1.0000
  H   H107      1.0  0.75071  0.23853  0.22265  1.0000
  H   H108      1.0  0.78219  0.26964  0.20271  1.0000
  C   C198      1.0  0.87117  0.34294  0.27779  1.0000
  H   H109      1.0  0.88001  0.34301  0.22849  1.0000
  C   C199      1.0  0.96778  0.47156  0.39809  1.0000
  C   C200      1.0  0.95197  0.45100  0.39995  1.0000
  C   C201      1.0  0.89350  0.39317  0.37519  1.0000
  C   C202      1.0  0.91018  0.41331  0.37556  1.0000
  C   C203      1.0  0.96785  0.57692  0.39355  1.0000
  C   C204      1.0  0.95200  0.58161  0.39447  1.0000
  C   C205      1.0  0.92682  0.60244  0.36864  1.0000
  C   C206      1.0  0.91051  0.60647  0.37119  1.0000
  C   C207      1.0  0.10571  0.65807  0.39985  1.0000
  C   C208      1.0  0.09005  0.63745  0.39800  1.0000
  C   C209      1.0  0.14715  0.69620  0.37454  1.0000
  C   C210      1.0  0.16358  0.71647  0.37430  1.0000
  C   C211      1.0  0.09006  0.53237  0.39330  1.0000
  C   C212      1.0  0.10607  0.52790  0.39417  1.0000
  C   C213      1.0  0.14834  0.50401  0.37149  1.0000
  C   C214      1.0  0.13180  0.50768  0.36886  1.0000
  H   H110      1.0  0.14706  0.49227  0.41032  1.0000
  H   H111      1.0  0.11902  0.49837  0.40555  1.0000
  H   H112      1.0  0.11092  0.52551  0.45461  1.0000
  H   H113      1.0  0.08525  0.62948  0.45683  1.0000
  H   H114      1.0  0.11167  0.66461  0.46052  1.0000
  H   H115      1.0  0.97442  0.57640  0.45276  1.0000
  H   H116      1.0  0.94734  0.58416  0.45489  1.0000
  H   H117      1.0  0.91206  0.61834  0.40958  1.0000
  H   H118      1.0  0.93971  0.61164  0.40497  1.0000
  H   H119      1.0  0.90917  0.42398  0.41394  1.0000
  H   H120      1.0  0.88104  0.38974  0.41408  1.0000
  H   H121      1.0  0.94613  0.44441  0.46068  1.0000
  H   H122      1.0  0.97279  0.47944  0.45697  1.0000
  H   H123      1.0  0.14848  0.68558  0.41219  1.0000
  H   H124      1.0  0.17621  0.72002  0.41247  1.0000
  C   C215      1.0  0.61350  0.57973  0.40043  1.0000
  C   C216      1.0  0.63406  0.58448  0.40228  1.0000
  C   C217      1.0  0.69191  0.58391  0.37725  1.0000
  C   C218      1.0  0.67177  0.58043  0.37768  1.0000
  C   C219      1.0  0.50815  0.47446  0.39580  1.0000
  C   C220      1.0  0.50346  0.45392  0.39670  1.0000
  C   C221      1.0  0.48262  0.40793  0.37083  1.0000
  C   C222      1.0  0.47860  0.38760  0.37336  1.0000
  C   C223      1.0  0.42699  0.53118  0.40220  1.0000
  C   C224      1.0  0.44762  0.53616  0.40036  1.0000
  C   C225      1.0  0.38884  0.53447  0.37678  1.0000
  C   C226      1.0  0.36857  0.53064  0.37639  1.0000
  C   C227      1.0  0.55270  0.64123  0.39555  1.0000
  C   C228      1.0  0.55717  0.66171  0.39640  1.0000
  C   C229      1.0  0.58106  0.72789  0.37365  1.0000
  C   C230      1.0  0.57739  0.70768  0.37104  1.0000
  H   H125      1.0  0.59280  0.73832  0.41248  1.0000
  H   H126      1.0  0.58669  0.70417  0.40774  1.0000
  H   H127      1.0  0.55955  0.66889  0.45683  1.0000
  H   H128      1.0  0.55216  0.63417  0.45484  1.0000
  H   H129      1.0  0.45560  0.53929  0.45917  1.0000
  H   H130      1.0  0.42046  0.53055  0.46286  1.0000
  H   H131      1.0  0.50867  0.48149  0.45501  1.0000
  H   H132      1.0  0.50091  0.44664  0.45710  1.0000
  H   H133      1.0  0.46672  0.37724  0.41176  1.0000
  H   H134      1.0  0.47343  0.41159  0.40717  1.0000
  H   H135      1.0  0.66111  0.56872  0.41609  1.0000
  H   H136      1.0  0.69534  0.57481  0.41600  1.0000
  H   H137      1.0  0.64065  0.58516  0.46299  1.0000
  H   H138      1.0  0.60561  0.57678  0.45931  1.0000
  H   H139      1.0  0.39946  0.54641  0.41431  1.0000
  H   H140      1.0  0.36501  0.53969  0.41440  1.0000
  C   C231      1.0  0.50531  0.11728  0.40270  1.0000
  C   C232      1.0  0.50056  0.13309  0.40455  1.0000
  C   C233      1.0  0.50114  0.19155  0.37951  1.0000
  C   C234      1.0  0.50461  0.17487  0.37999  1.0000
  C   C235      1.0  0.61068  0.11728  0.39724  1.0000
  C   C236      1.0  0.63123  0.13313  0.39776  1.0000
  C   C237      1.0  0.67718  0.15829  0.37094  1.0000
  C   C238      1.0  0.69753  0.17459  0.37301  1.0000
  C   C239      1.0  0.55391  0.97936  0.40449  1.0000
  C   C240      1.0  0.54894  0.99501  0.40264  1.0000
  C   C241      1.0  0.55061  0.93794  0.37906  1.0000
  C   C242      1.0  0.55443  0.92150  0.37866  1.0000
  C   C243      1.0  0.44377  0.99494  0.39693  1.0000
  C   C244      1.0  0.42329  0.97893  0.39742  1.0000
  C   C245      1.0  0.35712  0.93669  0.37336  1.0000
  C   C246      1.0  0.37734  0.95322  0.37117  1.0000
  H   H141      1.0  0.34666  0.93794  0.41199  1.0000
  H   H142      1.0  0.38081  0.96597  0.40797  1.0000
  H   H143      1.0  0.41605  0.97404  0.45772  1.0000
  H   H144      1.0  0.45077  0.00138  0.45634  1.0000
  H   H145      1.0  0.54581  0.99980  0.46146  1.0000
  H   H146      1.0  0.55454  0.97339  0.46515  1.0000
  H   H147      1.0  0.60371  0.11074  0.45659  1.0000
  H   H148      1.0  0.63856  0.13783  0.45802  1.0000
  H   H149      1.0  0.70793  0.17305  0.41116  1.0000
  H   H150      1.0  0.67356  0.14542  0.40733  1.0000
  H   H151      1.0  0.51633  0.17589  0.41836  1.0000
  H   H152      1.0  0.51024  0.20403  0.41826  1.0000
  H   H153      1.0  0.49988  0.13894  0.46527  1.0000
  H   H154      1.0  0.50827  0.11229  0.46158  1.0000
  H   H155      1.0  0.53867  0.93658  0.41661  1.0000
  H   H156      1.0  0.54537  0.90884  0.41666  1.0000
  C   C247      1.0  0.20673  0.50373  0.35500  1.0000
  C   C248      1.0  0.24442  0.50357  0.33109  1.0000
  C   C249      1.0  0.23325  0.49674  0.41186  1.0000
  C   C250      1.0  0.21475  0.49676  0.42346  1.0000
  H   H157      1.0  0.23825  0.49124  0.46270  1.0000
  H   H158      1.0  0.20716  0.49155  0.48291  1.0000
  C   C251      1.0  0.29645  0.50964  0.37509  1.0000
  C   C252      1.0  0.27814  0.51003  0.38705  1.0000
  H   H159      1.0  0.30688  0.51467  0.42622  1.0000
  H   H160      1.0  0.27608  0.51566  0.44586  1.0000
  C   C253      1.0  0.18827  0.50335  0.36838  1.0000
  H   H161      1.0  0.17935  0.49502  0.41854  1.0000
  C   C254      1.0  0.58133  0.78657  0.35714  1.0000
  C   C255      1.0  0.58149  0.82445  0.33324  1.0000
  C   C256      1.0  0.58832  0.82002  0.41401  1.0000
  C   C257      1.0  0.58831  0.80150  0.42560  1.0000
  H   H162      1.0  0.59382  0.83047  0.46486  1.0000
  H   H163      1.0  0.59351  0.79905  0.48507  1.0000
  C   C258      1.0  0.57541  0.87036  0.37725  1.0000
  C   C259      1.0  0.57502  0.85165  0.38920  1.0000
  H   H164      1.0  0.57037  0.87570  0.42837  1.0000
  H   H165      1.0  0.56939  0.84389  0.44801  1.0000
  C   C260      1.0  0.58172  0.76848  0.37051  1.0000
  H   H166      1.0  0.59005  0.76785  0.42068  1.0000
  C   C261      1.0  0.29842  0.87834  0.35536  1.0000
  C   C262      1.0  0.26059  0.84065  0.33067  1.0000
  C   C263      1.0  0.26491  0.85179  0.41148  1.0000
  C   C264      1.0  0.28341  0.87029  0.42346  1.0000
  H   H167      1.0  0.25439  0.84677  0.46208  1.0000
  H   H168      1.0  0.28578  0.87786  0.48295  1.0000
  C   C265      1.0  0.21464  0.78859  0.37381  1.0000
  C   C266      1.0  0.23333  0.80690  0.38612  1.0000
  H   H169      1.0  0.20925  0.77814  0.42487  1.0000
  H   H170      1.0  0.24102  0.80894  0.44511  1.0000
  C   C267      1.0  0.31650  0.89680  0.36912  1.0000
  H   H171      1.0  0.31705  0.90571  0.41909  1.0000
  C   C268      1.0  0.85268  0.60787  0.35445  1.0000
  C   C269      1.0  0.81530  0.60867  0.33039  1.0000
  C   C270      1.0  0.82656  0.61536  0.41111  1.0000
  C   C271      1.0  0.84491  0.61503  0.42278  1.0000
  H   H172      1.0  0.82174  0.62100  0.46185  1.0000
  H   H173      1.0  0.85257  0.62015  0.48219  1.0000
  C   C272      1.0  0.76364  0.60344  0.37424  1.0000
  C   C273      1.0  0.78180  0.60275  0.38632  1.0000
  H   H174      1.0  0.75327  0.59855  0.42542  1.0000
  H   H175      1.0  0.78381  0.59705  0.44527  1.0000
  C   C274      1.0  0.87100  0.60794  0.36787  1.0000
  H   H176      1.0  0.88008  0.61628  0.41758  1.0000
  C   C275      1.0  0.47720  0.32839  0.35661  1.0000
  C   C276      1.0  0.47639  0.29022  0.33256  1.0000
  C   C277      1.0  0.46970  0.29471  0.41327  1.0000
  C   C278      1.0  0.47003  0.31338  0.42494  1.0000
  H   H177      1.0  0.46407  0.28420  0.46402  1.0000
  H   H178      1.0  0.46491  0.31586  0.48435  1.0000
  C   C279      1.0  0.48162  0.24375  0.37642  1.0000
  C   C280      1.0  0.48232  0.26260  0.38850  1.0000
  H   H179      1.0  0.48651  0.23822  0.42761  1.0000
  H   H180      1.0  0.48801  0.27024  0.44744  1.0000
  C   C281      1.0  0.47713  0.34662  0.37002  1.0000
  H   H181      1.0  0.46879  0.34731  0.41977  1.0000
  C   C282      1.0  0.75675  0.23238  0.35477  1.0000
  C   C283      1.0  0.79487  0.26976  0.32995  1.0000
  C   C284      1.0  0.79048  0.25852  0.41071  1.0000
  C   C285      1.0  0.77184  0.24018  0.42275  1.0000
  H   H182      1.0  0.80106  0.26337  0.46121  1.0000
  H   H183      1.0  0.76943  0.23253  0.48217  1.0000
  C   C286      1.0  0.84136  0.32144  0.37298  1.0000
  C   C287      1.0  0.82253  0.30328  0.38539  1.0000
  H   H184      1.0  0.84694  0.33183  0.42408  1.0000
  H   H185      1.0  0.81495  0.30129  0.44448  1.0000
  C   C288      1.0  0.73853  0.21406  0.36854  1.0000
  H   H186      1.0  0.73792  0.20498  0.41811  1.0000
