data_image0
_chemical_formula_structural       CNC2NC4NC18H14C2NC16H12C3NC2NC5NC4NC18H14CNC16H12C11H11CNCNC4NC16H13NCHNCHNCHNCHNCHNCHNCHNCHNCHNCHNCHNCHC7NC12H12C2NC3NC3NC18H14C12H12C3NC3NC3NC18H14C3NC3NC2NC5NC20H15C8NC14H13C2NC2O2HC2NC2O2HC2NC2O2HC2NC2O2HC2NC2O2HC2NC2O2HC2NC2O2HC2NC2O2HC2NC2O2HC2NC2O2HC2NC2O2HC2NC2O2H
_chemical_formula_sum              "C324 N48 H180 O24"
_cell_length_a       56.8971
_cell_length_b       56.8971
_cell_length_c       14.9916
_cell_angle_alpha    90.0018
_cell_angle_beta     89.9652
_cell_angle_gamma    120

_space_group_name_H-M_alt    "P 1"
_space_group_IT_number       1

loop_
  _space_group_symop_operation_xyz
  'x, y, z'

loop_
  _atom_site_type_symbol
  _atom_site_label
  _atom_site_symmetry_multiplicity
  _atom_site_fract_x
  _atom_site_fract_y
  _atom_site_fract_z
  _atom_site_occupancy
  C   C1        1.0  0.28647  0.53036  0.34640  1.0000
  N   N1        1.0  0.27773  0.48835  0.33441  1.0000
  C   C2        1.0  0.30514  0.50363  0.33942  1.0000
  C   C3        1.0  0.32509  0.49551  0.33828  1.0000
  N   N2        1.0  0.29460  0.44542  0.33383  1.0000
  C   C4        1.0  0.29657  0.42271  0.33345  1.0000
  C   C5        1.0  0.32432  0.43154  0.33656  1.0000
  C   C6        1.0  0.33828  0.45953  0.33715  1.0000
  C   C7        1.0  0.27515  0.39529  0.33047  1.0000
  N   N3        1.0  0.23480  0.40217  0.33120  1.0000
  C   C8        1.0  0.20737  0.38690  0.32754  1.0000
  C   C9        1.0  0.22594  0.36008  0.32166  1.0000
  C   C10       1.0  0.21594  0.46789  0.33325  1.0000
  C   C11       1.0  0.23735  0.49522  0.33607  1.0000
  C   C12       1.0  0.23022  0.51590  0.33763  1.0000
  C   C13       1.0  0.22904  0.52828  0.25753  1.0000
  C   C14       1.0  0.22468  0.55054  0.25940  1.0000
  C   C15       1.0  0.22159  0.56120  0.34124  1.0000
  C   C16       1.0  0.14495  0.36601  0.24834  1.0000
  C   C17       1.0  0.11680  0.34779  0.24950  1.0000
  C   C18       1.0  0.28259  0.37479  0.33062  1.0000
  C   C19       1.0  0.30357  0.33860  0.33800  1.0000
  C   C20       1.0  0.30455  0.35228  0.25792  1.0000
  C   C21       1.0  0.29418  0.37010  0.25414  1.0000
  C   C22       1.0  0.35290  0.51636  0.34042  1.0000
  C   C23       1.0  0.36516  0.53247  0.26413  1.0000
  C   C24       1.0  0.39159  0.55493  0.26865  1.0000
  C   C25       1.0  0.40652  0.56194  0.34935  1.0000
  H   H1        1.0  0.39932  0.56689  0.21321  1.0000
  H   H2        1.0  0.35452  0.52862  0.20577  1.0000
  H   H3        1.0  0.28483  0.54739  0.35191  1.0000
  H   H4        1.0  0.26812  0.46901  0.32664  1.0000
  H   H5        1.0  0.24446  0.42155  0.33778  1.0000
  H   H6        1.0  0.35894  0.47134  0.33928  1.0000
  H   H7        1.0  0.33333  0.41987  0.33787  1.0000
  H   H8        1.0  0.29627  0.38059  0.19641  1.0000
  H   H9        1.0  0.31408  0.35047  0.20259  1.0000
  H   H10       1.0  0.22756  0.34303  0.31712  1.0000
  H   H11       1.0  0.15443  0.37374  0.18862  1.0000
  H   H12       1.0  0.10666  0.34314  0.19003  1.0000
  H   H13       1.0  0.22534  0.55975  0.20019  1.0000
  H   H14       1.0  0.23229  0.52180  0.19751  1.0000
  C   C26       1.0  0.53769  0.75629  0.34773  1.0000
  C   C27       1.0  0.56441  0.80168  0.34001  1.0000
  N   N4        1.0  0.62262  0.84935  0.33424  1.0000
  C   C28       1.0  0.64533  0.87402  0.33362  1.0000
  C   C29       1.0  0.63649  0.89294  0.33621  1.0000
  C   C30       1.0  0.60850  0.87891  0.33678  1.0000
  C   C31       1.0  0.67275  0.88001  0.33094  1.0000
  C   C32       1.0  0.68113  0.82061  0.32836  1.0000
  C   C33       1.0  0.70797  0.86600  0.32310  1.0000
  C   C34       1.0  0.60012  0.74820  0.33349  1.0000
  C   C35       1.0  0.53969  0.70095  0.25796  1.0000
  C   C36       1.0  0.51744  0.67434  0.25984  1.0000
  C   C37       1.0  0.70206  0.77912  0.24879  1.0000
  C   C38       1.0  0.72028  0.76919  0.24993  1.0000
  C   C39       1.0  0.69325  0.90796  0.33107  1.0000
  C   C40       1.0  0.71586  0.95238  0.25809  1.0000
  C   C41       1.0  0.69804  0.92418  0.25441  1.0000
  C   C42       1.0  0.53550  0.83270  0.26437  1.0000
  C   C43       1.0  0.51305  0.83670  0.26881  1.0000
  H   H15       1.0  0.50107  0.83239  0.21341  1.0000
  H   H16       1.0  0.53933  0.82584  0.20611  1.0000
  H   H17       1.0  0.52068  0.73764  0.35396  1.0000
  H   H18       1.0  0.59670  0.88777  0.33848  1.0000
  H   H19       1.0  0.64816  0.91362  0.33723  1.0000
  H   H20       1.0  0.68759  0.91576  0.19667  1.0000
  H   H21       1.0  0.71768  0.96369  0.20270  1.0000
  H   H22       1.0  0.72503  0.88468  0.31872  1.0000
  H   H23       1.0  0.69440  0.78094  0.18905  1.0000
  H   H24       1.0  0.72499  0.76376  0.19043  1.0000
  H   H25       1.0  0.50820  0.66579  0.20065  1.0000
  H   H26       1.0  0.54615  0.71072  0.19796  1.0000
  C   C44       1.0  0.28756  0.75731  0.34784  1.0000
  C   C45       1.0  0.31176  0.78157  0.34675  1.0000
  C   C46       1.0  0.30594  0.80260  0.33841  1.0000
  N   N5        1.0  0.27851  0.79031  0.33405  1.0000
  C   C47       1.0  0.26637  0.76290  0.33924  1.0000
  C   C48       1.0  0.23830  0.74294  0.33778  1.0000
  N   N6        1.0  0.21870  0.77343  0.33341  1.0000
  C   C49       1.0  0.19403  0.77147  0.33277  1.0000
  C   C50       1.0  0.17511  0.74371  0.33540  1.0000
  C   C51       1.0  0.18914  0.72975  0.33603  1.0000
  C   C52       1.0  0.18803  0.79289  0.33007  1.0000
  C   C53       1.0  0.20780  0.82100  0.32830  1.0000
  N   N7        1.0  0.23525  0.83324  0.33104  1.0000
  C   C54       1.0  0.24742  0.86068  0.32765  1.0000
  C   C55       1.0  0.22628  0.86641  0.32237  1.0000
  C   C56       1.0  0.20203  0.84212  0.32239  1.0000
  C   C57       1.0  0.27550  0.88049  0.32864  1.0000
  N   N8        1.0  0.29515  0.85006  0.33192  1.0000
  C   C58       1.0  0.31984  0.85210  0.33295  1.0000
  C   C59       1.0  0.32575  0.83068  0.33588  1.0000
  C   C60       1.0  0.35356  0.83781  0.33753  1.0000
  C   C61       1.0  0.36714  0.83891  0.25748  1.0000
  C   C62       1.0  0.39375  0.84328  0.25946  1.0000
  C   C63       1.0  0.40750  0.84646  0.34133  1.0000
  C   C64       1.0  0.28283  0.90835  0.32873  1.0000
  C   C65       1.0  0.28896  0.92312  0.24822  1.0000
  C   C66       1.0  0.29886  0.95127  0.24939  1.0000
  C   C67       1.0  0.30312  0.96550  0.33088  1.0000
  C   C68       1.0  0.16009  0.78545  0.33026  1.0000
  C   C69       1.0  0.10291  0.76442  0.33759  1.0000
  C   C70       1.0  0.11566  0.76362  0.25740  1.0000
  C   C71       1.0  0.14386  0.77399  0.25366  1.0000
  C   C72       1.0  0.23135  0.71513  0.33992  1.0000
  C   C73       1.0  0.23532  0.70293  0.26372  1.0000
  C   C74       1.0  0.23138  0.67651  0.26830  1.0000
  C   C75       1.0  0.22330  0.66151  0.34889  1.0000
  H   H27       1.0  0.23566  0.66880  0.21290  1.0000
  H   H28       1.0  0.24222  0.71362  0.20545  1.0000
  H   H29       1.0  0.33041  0.78321  0.35286  1.0000
  H   H30       1.0  0.26880  0.79991  0.32557  1.0000
  H   H31       1.0  0.24499  0.82357  0.33654  1.0000
  H   H32       1.0  0.18028  0.70909  0.33778  1.0000
  H   H33       1.0  0.15443  0.73470  0.33641  1.0000
  H   H34       1.0  0.15229  0.77199  0.19586  1.0000
  H   H35       1.0  0.10436  0.75413  0.20203  1.0000
  H   H36       1.0  0.18336  0.84050  0.31809  1.0000
  H   H37       1.0  0.28720  0.91366  0.18847  1.0000
  H   H38       1.0  0.30439  0.96143  0.18995  1.0000
  H   H39       1.0  0.40233  0.84259  0.20030  1.0000
  H   H40       1.0  0.35740  0.83560  0.19746  1.0000
  C   C76       1.0  0.78545  0.54183  0.34013  1.0000
  N   N9        1.0  0.79600  0.60005  0.33453  1.0000
  C   C77       1.0  0.79404  0.62276  0.33395  1.0000
  C   C78       1.0  0.76629  0.61393  0.33678  1.0000
  C   C79       1.0  0.75232  0.58594  0.33753  1.0000
  C   C80       1.0  0.81547  0.65018  0.33106  1.0000
  C   C81       1.0  0.88325  0.65856  0.32830  1.0000
  C   C82       1.0  0.86470  0.68539  0.32292  1.0000
  C   C83       1.0  0.87465  0.57755  0.33380  1.0000
  C   C84       1.0  0.86153  0.51715  0.25814  1.0000
  C   C85       1.0  0.86585  0.49487  0.26004  1.0000
  C   C86       1.0  0.94565  0.67947  0.24865  1.0000
  C   C87       1.0  0.97381  0.69769  0.24969  1.0000
  C   C88       1.0  0.80803  0.67069  0.33113  1.0000
  C   C89       1.0  0.78617  0.69323  0.25820  1.0000
  C   C90       1.0  0.79658  0.67544  0.25449  1.0000
  C   C91       1.0  0.72546  0.51300  0.26483  1.0000
  C   C92       1.0  0.69903  0.49054  0.26935  1.0000
  H   H41       1.0  0.69133  0.47858  0.21393  1.0000
  H   H42       1.0  0.73614  0.51683  0.20649  1.0000
  H   H43       1.0  0.80574  0.49808  0.35305  1.0000
  H   H44       1.0  0.73166  0.57414  0.33927  1.0000
  H   H45       1.0  0.75728  0.62561  0.33778  1.0000
  H   H46       1.0  0.79451  0.66495  0.19681  1.0000
  H   H47       1.0  0.77668  0.69505  0.20282  1.0000
  H   H48       1.0  0.86308  0.70246  0.31852  1.0000
  H   H49       1.0  0.93618  0.67175  0.18896  1.0000
  H   H50       1.0  0.98394  0.70232  0.19018  1.0000
  H   H51       1.0  0.86525  0.48568  0.20081  1.0000
  H   H52       1.0  0.85826  0.52362  0.19813  1.0000
  C   C93       1.0  0.44530  0.17146  0.33416  1.0000
  C   C94       1.0  0.45413  0.15254  0.33716  1.0000
  C   C95       1.0  0.48213  0.16657  0.33782  1.0000
  C   C96       1.0  0.55087  0.34459  0.25864  1.0000
  C   C97       1.0  0.57311  0.37121  0.26055  1.0000
  C   C98       1.0  0.38864  0.26641  0.24898  1.0000
  C   C99       1.0  0.37041  0.27634  0.25002  1.0000
  C   C100      1.0  0.37491  0.09311  0.25814  1.0000
  C   C101      1.0  0.39272  0.12131  0.25453  1.0000
  C   C102      1.0  0.55507  0.21269  0.26497  1.0000
  C   C103      1.0  0.57754  0.20872  0.26941  1.0000
  H   H53       1.0  0.58951  0.21300  0.21397  1.0000
  H   H54       1.0  0.55124  0.21953  0.20666  1.0000
  H   H55       1.0  0.56996  0.30787  0.35320  1.0000
  H   H56       1.0  0.49393  0.15772  0.33989  1.0000
  H   H57       1.0  0.40322  0.12975  0.19685  1.0000
  H   H58       1.0  0.37312  0.08182  0.20273  1.0000
  H   H59       1.0  0.36562  0.16078  0.31786  1.0000
  H   H60       1.0  0.39640  0.26467  0.18931  1.0000
  H   H61       1.0  0.36580  0.28183  0.19052  1.0000
  H   H62       1.0  0.58234  0.37979  0.20133  1.0000
  H   H63       1.0  0.54440  0.33486  0.19862  1.0000
  C   C104      1.0  0.77886  0.26389  0.34779  1.0000
  N   N10       1.0  0.81212  0.25516  0.33473  1.0000
  C   C105      1.0  0.82425  0.28257  0.33998  1.0000
  N   N11       1.0  0.87192  0.27203  0.33407  1.0000
  C   C106      1.0  0.89659  0.27400  0.33341  1.0000
  C   C107      1.0  0.91552  0.30176  0.33602  1.0000
  C   C108      1.0  0.90149  0.31572  0.33665  1.0000
  C   C109      1.0  0.90259  0.25257  0.33068  1.0000
  N   N12       1.0  0.85536  0.21223  0.33160  1.0000
  C   C110      1.0  0.84320  0.18479  0.32814  1.0000
  C   C111      1.0  0.88859  0.20335  0.32280  1.0000
  C   C112      1.0  0.77078  0.19338  0.33349  1.0000
  C   C113      1.0  0.76487  0.21479  0.33653  1.0000
  C   C114      1.0  0.72352  0.20658  0.25813  1.0000
  C   C115      1.0  0.69690  0.20221  0.26010  1.0000
  C   C116      1.0  0.68313  0.19905  0.34196  1.0000
  C   C117      1.0  0.80172  0.12238  0.24863  1.0000
  C   C118      1.0  0.79178  0.09422  0.24979  1.0000
  C   C119      1.0  0.93054  0.26002  0.33080  1.0000
  C   C120      1.0  0.98771  0.28103  0.33799  1.0000
  C   C121      1.0  0.97497  0.28186  0.25785  1.0000
  C   C122      1.0  0.94677  0.27149  0.25417  1.0000
  C   C123      1.0  0.85927  0.33033  0.34056  1.0000
  C   C124      1.0  0.85528  0.34253  0.26443  1.0000
  C   C125      1.0  0.85927  0.36897  0.26894  1.0000
  H   H64       1.0  0.85496  0.37666  0.21358  1.0000
  H   H65       1.0  0.84842  0.33185  0.20613  1.0000
  H   H66       1.0  0.76021  0.26225  0.35406  1.0000
  H   H67       1.0  0.82183  0.24557  0.32577  1.0000
  H   H68       1.0  0.91034  0.33638  0.33838  1.0000
  H   H69       1.0  0.93619  0.31076  0.33701  1.0000
  H   H70       1.0  0.93836  0.27353  0.19643  1.0000
  H   H71       1.0  0.98629  0.29137  0.20247  1.0000
  H   H72       1.0  0.90726  0.20496  0.31840  1.0000
  H   H73       1.0  0.80355  0.13187  0.18889  1.0000
  H   H74       1.0  0.78635  0.08410  0.19030  1.0000
  H   H75       1.0  0.68836  0.20293  0.20095  1.0000
  H   H76       1.0  0.73327  0.20990  0.19810  1.0000
  N   N13       1.0  0.21049  0.61854  0.28314  1.0000
  C   C126      1.0  0.20898  0.59408  0.27592  1.0000
  H   H77       1.0  0.20013  0.58255  0.22059  1.0000
  N   N14       1.0  0.44952  0.59210  0.28362  1.0000
  C   C127      1.0  0.47399  0.61506  0.27640  1.0000
  H   H78       1.0  0.48555  0.61772  0.22113  1.0000
  N   N15       1.0  0.47596  0.85756  0.28337  1.0000
  C   C128      1.0  0.45301  0.85907  0.27607  1.0000
  H   H79       1.0  0.45034  0.86789  0.22062  1.0000
  N   N16       1.0  0.88013  0.42693  0.28372  1.0000
  C   C129      1.0  0.88163  0.45139  0.27649  1.0000
  H   H80       1.0  0.89049  0.46292  0.22113  1.0000
  N   N17       1.0  0.64108  0.45341  0.28431  1.0000
  C   C130      1.0  0.61661  0.43045  0.27712  1.0000
  H   H81       1.0  0.60508  0.42781  0.22184  1.0000
  N   N18       1.0  0.61468  0.18793  0.28416  1.0000
  C   C131      1.0  0.63764  0.18642  0.27685  1.0000
  H   H82       1.0  0.64030  0.17755  0.22152  1.0000
  N   N19       1.0  0.03006  0.29144  0.27190  1.0000
  C   C132      1.0  0.05747  0.30404  0.26481  1.0000
  H   H83       1.0  0.06578  0.30068  0.20934  1.0000
  N   N20       1.0  0.77660  0.73877  0.27220  1.0000
  C   C133      1.0  0.76400  0.75357  0.26516  1.0000
  H   H84       1.0  0.76735  0.76523  0.20967  1.0000
  N   N21       1.0  0.32934  0.03802  0.27192  1.0000
  C   C134      1.0  0.31455  0.01062  0.26476  1.0000
  H   H85       1.0  0.30292  0.00233  0.20923  1.0000
  N   N22       1.0  0.06055  0.75400  0.27169  1.0000
  C   C135      1.0  0.03314  0.74139  0.26474  1.0000
  H   H86       1.0  0.02482  0.74477  0.20935  1.0000
  N   N23       1.0  0.31406  0.30672  0.27195  1.0000
  C   C136      1.0  0.32667  0.29192  0.26497  1.0000
  H   H87       1.0  0.32339  0.28031  0.20940  1.0000
  N   N24       1.0  0.76136  0.00748  0.27220  1.0000
  C   C137      1.0  0.77615  0.03488  0.26510  1.0000
  H   H88       1.0  0.78784  0.04320  0.20966  1.0000
  C   C138      1.0  0.31073  0.53043  0.34745  1.0000
  C   C139      1.0  0.26543  0.50349  0.33846  1.0000
  C   C140      1.0  0.31924  0.46817  0.33631  1.0000
  C   C141      1.0  0.24704  0.38695  0.32824  1.0000
  C   C142      1.0  0.20165  0.36003  0.32166  1.0000
  C   C143      1.0  0.18755  0.39515  0.32885  1.0000
  C   C144      1.0  0.19336  0.42249  0.33080  1.0000
  N   N25       1.0  0.21797  0.44523  0.33207  1.0000
  C   C145      1.0  0.18823  0.45917  0.33248  1.0000
  C   C146      1.0  0.17430  0.43117  0.33131  1.0000
  C   C147      1.0  0.22244  0.54830  0.42110  1.0000
  C   C148      1.0  0.22661  0.52592  0.41951  1.0000
  C   C149      1.0  0.15969  0.37462  0.32886  1.0000
  C   C150      1.0  0.10255  0.33776  0.33096  1.0000
  C   C151      1.0  0.11773  0.34622  0.41120  1.0000
  C   C152      1.0  0.14590  0.36431  0.41034  1.0000
  C   C153      1.0  0.28039  0.36028  0.40956  1.0000
  C   C154      1.0  0.29049  0.34221  0.41277  1.0000
  C   C155      1.0  0.36800  0.52257  0.42029  1.0000
  C   C156      1.0  0.39456  0.54487  0.42426  1.0000
  H   H89       1.0  0.40490  0.54878  0.48318  1.0000
  H   H90       1.0  0.35953  0.51128  0.47661  1.0000
  H   H91       1.0  0.32929  0.54753  0.35407  1.0000
  H   H92       1.0  0.27217  0.36338  0.46602  1.0000
  H   H93       1.0  0.28872  0.33219  0.47122  1.0000
  H   H94       1.0  0.18299  0.34297  0.31698  1.0000
  H   H95       1.0  0.17934  0.47095  0.33349  1.0000
  H   H96       1.0  0.15364  0.41936  0.33070  1.0000
  H   H97       1.0  0.15608  0.37061  0.46966  1.0000
  H   H98       1.0  0.10835  0.33964  0.47169  1.0000
  H   H99       1.0  0.22786  0.51757  0.47853  1.0000
  H   H100      1.0  0.22048  0.55536  0.48182  1.0000
  C   C157      1.0  0.53763  0.78049  0.34876  1.0000
  C   C158      1.0  0.56453  0.76211  0.33915  1.0000
  N   N26       1.0  0.57969  0.78954  0.33477  1.0000
  C   C159      1.0  0.57253  0.82975  0.33851  1.0000
  C   C160      1.0  0.59987  0.85123  0.33635  1.0000
  C   C161      1.0  0.68108  0.86024  0.32908  1.0000
  N   N27       1.0  0.66586  0.83279  0.33182  1.0000
  C   C162      1.0  0.70801  0.84176  0.32300  1.0000
  C   C163      1.0  0.67286  0.79254  0.32932  1.0000
  C   C164      1.0  0.64552  0.77100  0.33104  1.0000
  N   N28       1.0  0.62278  0.77289  0.33257  1.0000
  C   C165      1.0  0.60883  0.72921  0.33234  1.0000
  C   C166      1.0  0.63683  0.74328  0.33112  1.0000
  C   C167      1.0  0.57280  0.74229  0.33649  1.0000
  C   C168      1.0  0.55211  0.71448  0.33806  1.0000
  C   C169      1.0  0.50681  0.66055  0.34166  1.0000
  C   C170      1.0  0.51975  0.67428  0.42151  1.0000
  C   C171      1.0  0.54214  0.70080  0.41991  1.0000
  C   C172      1.0  0.69339  0.78520  0.32934  1.0000
  C   C173      1.0  0.73024  0.76491  0.33138  1.0000
  C   C174      1.0  0.72174  0.77160  0.41164  1.0000
  C   C175      1.0  0.70362  0.78165  0.41081  1.0000
  C   C176      1.0  0.70766  0.92031  0.41008  1.0000
  C   C177      1.0  0.72572  0.94847  0.41319  1.0000
  C   C178      1.0  0.72941  0.96512  0.33825  1.0000
  C   C179      1.0  0.55167  0.83670  0.34056  1.0000
  C   C180      1.0  0.54550  0.84573  0.42027  1.0000
  C   C181      1.0  0.50610  0.84477  0.34935  1.0000
  C   C182      1.0  0.52320  0.84999  0.42418  1.0000
  H   H101      1.0  0.51934  0.85653  0.48298  1.0000
  H   H102      1.0  0.55683  0.84866  0.47653  1.0000
  H   H103      1.0  0.52055  0.78196  0.35602  1.0000
  H   H104      1.0  0.59899  0.79925  0.32583  1.0000
  H   H105      1.0  0.64646  0.82305  0.33756  1.0000
  H   H106      1.0  0.70451  0.90902  0.46661  1.0000
  H   H107      1.0  0.73568  0.95676  0.47168  1.0000
  H   H108      1.0  0.72508  0.84016  0.31860  1.0000
  H   H109      1.0  0.59704  0.70854  0.33300  1.0000
  H   H110      1.0  0.64864  0.73441  0.33025  1.0000
  H   H111      1.0  0.69729  0.78550  0.47015  1.0000
  H   H112      1.0  0.72825  0.76874  0.47214  1.0000
  H   H113      1.0  0.55050  0.71040  0.47893  1.0000
  H   H114      1.0  0.51271  0.66522  0.48222  1.0000
  C   C183      1.0  0.21682  0.74880  0.33559  1.0000
  C   C184      1.0  0.29703  0.87468  0.33042  1.0000
  C   C185      1.0  0.33883  0.87980  0.33189  1.0000
  C   C186      1.0  0.32476  0.89373  0.33060  1.0000
  C   C187      1.0  0.39374  0.84568  0.42112  1.0000
  C   C188      1.0  0.36720  0.84152  0.41943  1.0000
  C   C189      1.0  0.29639  0.95028  0.41111  1.0000
  C   C190      1.0  0.28630  0.92212  0.41022  1.0000
  C   C191      1.0  0.14772  0.78748  0.40933  1.0000
  C   C192      1.0  0.11956  0.77739  0.41250  1.0000
  C   C193      1.0  0.22233  0.69998  0.41969  1.0000
  C   C194      1.0  0.21807  0.67342  0.42369  1.0000
  H   H115      1.0  0.21152  0.66302  0.48252  1.0000
  H   H116      1.0  0.21940  0.70840  0.47593  1.0000
  H   H117      1.0  0.28610  0.73876  0.35482  1.0000
  H   H118      1.0  0.15900  0.79563  0.46585  1.0000
  H   H119      1.0  0.11126  0.77904  0.47105  1.0000
  H   H120      1.0  0.22787  0.88508  0.31805  1.0000
  H   H121      1.0  0.35950  0.88868  0.33257  1.0000
  H   H122      1.0  0.33362  0.91440  0.32976  1.0000
  H   H123      1.0  0.28245  0.91192  0.46955  1.0000
  H   H124      1.0  0.29923  0.95965  0.47162  1.0000
  H   H125      1.0  0.35758  0.84032  0.47841  1.0000
  H   H126      1.0  0.40276  0.84773  0.48186  1.0000
  C   C195      1.0  0.77985  0.51504  0.34834  1.0000
  C   C196      1.0  0.80411  0.51510  0.34725  1.0000
  C   C197      1.0  0.82515  0.54196  0.33918  1.0000
  N   N29       1.0  0.81286  0.55711  0.33501  1.0000
  C   C198      1.0  0.76550  0.54996  0.33894  1.0000
  C   C199      1.0  0.77136  0.57730  0.33689  1.0000
  C   C200      1.0  0.84358  0.65851  0.32908  1.0000
  N   N30       1.0  0.85581  0.64330  0.33188  1.0000
  C   C201      1.0  0.88898  0.68543  0.32281  1.0000
  C   C202      1.0  0.90305  0.65029  0.32930  1.0000
  C   C203      1.0  0.89724  0.62294  0.33120  1.0000
  N   N31       1.0  0.87262  0.60021  0.33271  1.0000
  C   C204      1.0  0.90235  0.58626  0.33277  1.0000
  C   C205      1.0  0.91629  0.61426  0.33144  1.0000
  C   C206      1.0  0.85323  0.55022  0.33669  1.0000
  C   C207      1.0  0.86035  0.52953  0.33825  1.0000
  C   C208      1.0  0.86898  0.48424  0.34185  1.0000
  C   C209      1.0  0.86815  0.49716  0.42171  1.0000
  C   C210      1.0  0.86399  0.51954  0.42011  1.0000
  C   C211      1.0  0.93092  0.67082  0.32925  1.0000
  C   C212      1.0  0.98806  0.70766  0.33110  1.0000
  C   C213      1.0  0.97288  0.69918  0.41141  1.0000
  C   C214      1.0  0.94472  0.68109  0.41067  1.0000
  C   C215      1.0  0.81011  0.68513  0.41010  1.0000
  C   C216      1.0  0.80001  0.70320  0.41320  1.0000
  C   C217      1.0  0.78702  0.70685  0.33829  1.0000
  C   C218      1.0  0.73769  0.52911  0.34108  1.0000
  C   C219      1.0  0.72255  0.52292  0.42091  1.0000
  C   C220      1.0  0.68406  0.48355  0.35003  1.0000
  C   C221      1.0  0.69599  0.50061  0.42492  1.0000
  H   H127      1.0  0.68561  0.49672  0.48381  1.0000
  H   H128      1.0  0.73099  0.53421  0.47723  1.0000
  H   H129      1.0  0.76129  0.49795  0.35522  1.0000
  H   H130      1.0  0.82248  0.57644  0.32706  1.0000
  H   H131      1.0  0.84614  0.62389  0.33761  1.0000
  H   H132      1.0  0.81824  0.68199  0.46665  1.0000
  H   H133      1.0  0.80168  0.71316  0.47168  1.0000
  H   H134      1.0  0.90765  0.70250  0.31832  1.0000
  H   H135      1.0  0.91123  0.57447  0.33346  1.0000
  H   H136      1.0  0.93696  0.62607  0.33056  1.0000
  H   H137      1.0  0.93454  0.67476  0.47004  1.0000
  H   H138      1.0  0.98227  0.70572  0.47187  1.0000
  H   H139      1.0  0.86274  0.52790  0.47913  1.0000
  H   H140      1.0  0.87015  0.49013  0.48242  1.0000
  C   C222      1.0  0.55300  0.26501  0.34862  1.0000
  C   C223      1.0  0.55293  0.28921  0.34761  1.0000
  C   C224      1.0  0.52608  0.28338  0.33957  1.0000
  N   N32       1.0  0.51093  0.25594  0.33544  1.0000
  C   C225      1.0  0.52621  0.24381  0.34047  1.0000
  C   C226      1.0  0.51809  0.21574  0.33920  1.0000
  C   C227      1.0  0.49076  0.19425  0.33713  1.0000
  N   N33       1.0  0.46800  0.19613  0.33467  1.0000
  C   C228      1.0  0.41787  0.16546  0.33115  1.0000
  C   C229      1.0  0.40954  0.18523  0.32900  1.0000
  N   N34       1.0  0.42475  0.21268  0.33202  1.0000
  C   C230      1.0  0.40948  0.22484  0.32836  1.0000
  C   C231      1.0  0.38262  0.20370  0.32247  1.0000
  C   C232      1.0  0.38267  0.17946  0.32243  1.0000
  C   C233      1.0  0.41774  0.25292  0.32967  1.0000
  C   C234      1.0  0.44508  0.27446  0.33167  1.0000
  N   N35       1.0  0.46781  0.27258  0.33303  1.0000
  C   C235      1.0  0.49047  0.29727  0.33423  1.0000
  C   C236      1.0  0.48175  0.31625  0.33341  1.0000
  C   C237      1.0  0.45375  0.30218  0.33217  1.0000
  C   C238      1.0  0.51780  0.30319  0.33715  1.0000
  C   C239      1.0  0.53848  0.33100  0.33874  1.0000
  C   C240      1.0  0.58376  0.38494  0.34238  1.0000
  C   C241      1.0  0.57085  0.37116  0.42224  1.0000
  C   C242      1.0  0.54848  0.34462  0.42062  1.0000
  C   C243      1.0  0.39719  0.26024  0.32957  1.0000
  C   C244      1.0  0.36033  0.28052  0.33142  1.0000
  C   C245      1.0  0.36874  0.27375  0.41171  1.0000
  C   C246      1.0  0.38684  0.26370  0.41098  1.0000
  C   C247      1.0  0.39738  0.13751  0.33114  1.0000
  C   C248      1.0  0.38285  0.12513  0.41002  1.0000
  C   C249      1.0  0.36480  0.09697  0.41304  1.0000
  C   C250      1.0  0.36122  0.08034  0.33815  1.0000
  C   C251      1.0  0.53895  0.20879  0.34127  1.0000
  C   C252      1.0  0.54514  0.19984  0.42106  1.0000
  C   C253      1.0  0.58453  0.20074  0.35004  1.0000
  C   C254      1.0  0.56744  0.19557  0.42495  1.0000
  H   H141      1.0  0.57133  0.18910  0.48382  1.0000
  H   H142      1.0  0.53383  0.19696  0.47739  1.0000
  H   H143      1.0  0.57010  0.26356  0.35528  1.0000
  H   H144      1.0  0.49160  0.24622  0.32755  1.0000
  H   H145      1.0  0.44413  0.22241  0.33855  1.0000
  H   H146      1.0  0.44247  0.13187  0.33835  1.0000
  H   H147      1.0  0.38593  0.13640  0.46655  1.0000
  H   H148      1.0  0.35477  0.08866  0.47146  1.0000
  H   H149      1.0  0.36555  0.20530  0.31778  1.0000
  H   H150      1.0  0.49353  0.33693  0.33441  1.0000
  H   H151      1.0  0.44194  0.31104  0.33149  1.0000
  H   H152      1.0  0.39310  0.25979  0.47034  1.0000
  H   H153      1.0  0.36212  0.27654  0.47216  1.0000
  H   H154      1.0  0.54012  0.33499  0.47964  1.0000
  H   H155      1.0  0.57789  0.38017  0.48296  1.0000
  C   C255      1.0  0.80306  0.28816  0.34878  1.0000
  C   C256      1.0  0.78468  0.24287  0.33916  1.0000
  C   C257      1.0  0.85232  0.30252  0.33846  1.0000
  C   C258      1.0  0.87380  0.29667  0.33623  1.0000
  C   C259      1.0  0.88282  0.22446  0.32881  1.0000
  C   C260      1.0  0.86434  0.17906  0.32273  1.0000
  C   C261      1.0  0.81512  0.16498  0.32914  1.0000
  C   C262      1.0  0.79359  0.17079  0.33093  1.0000
  N   N36       1.0  0.79547  0.19541  0.33249  1.0000
  C   C263      1.0  0.75179  0.16568  0.33235  1.0000
  C   C264      1.0  0.76586  0.15174  0.33106  1.0000
  C   C265      1.0  0.73706  0.20767  0.33818  1.0000
  C   C266      1.0  0.69687  0.19982  0.42176  1.0000
  C   C267      1.0  0.72339  0.20394  0.42007  1.0000
  C   C268      1.0  0.80779  0.13712  0.32918  1.0000
  C   C269      1.0  0.78749  0.07997  0.33125  1.0000
  C   C270      1.0  0.79416  0.09515  0.41150  1.0000
  C   C271      1.0  0.80421  0.12331  0.41066  1.0000
  C   C272      1.0  0.94288  0.25793  0.40980  1.0000
  C   C273      1.0  0.97104  0.26803  0.41291  1.0000
  C   C274      1.0  0.86829  0.34549  0.42031  1.0000
  C   C275      1.0  0.86732  0.38396  0.34951  1.0000
  C   C276      1.0  0.87255  0.37205  0.42429  1.0000
  H   H156      1.0  0.87908  0.38244  0.48312  1.0000
  H   H157      1.0  0.87121  0.33707  0.47654  1.0000
  H   H158      1.0  0.80453  0.30670  0.35606  1.0000
  H   H159      1.0  0.84563  0.22190  0.33737  1.0000
  H   H160      1.0  0.93158  0.24976  0.46632  1.0000
  H   H161      1.0  0.97931  0.26633  0.47138  1.0000
  H   H162      1.0  0.86275  0.16039  0.31832  1.0000
  H   H163      1.0  0.73112  0.15679  0.33306  1.0000
  H   H164      1.0  0.75699  0.13108  0.33020  1.0000
  H   H165      1.0  0.80805  0.13349  0.46999  1.0000
  H   H166      1.0  0.79127  0.08576  0.47200  1.0000
  H   H167      1.0  0.73300  0.20518  0.47907  1.0000
  H   H168      1.0  0.68782  0.19780  0.48250  1.0000
  C   C277      1.0  0.22163  0.63568  0.35372  1.0000
  C   C278      1.0  0.21992  0.58540  0.34441  1.0000
  N   N37       1.0  0.23106  0.60260  0.41469  1.0000
  C   C279      1.0  0.23226  0.62695  0.42397  1.0000
  C   C280      1.0  0.24623  0.64268  0.49704  1.0000
  O   O1        1.0  0.24164  0.63170  0.57009  1.0000
  O   O2        1.0  0.26907  0.66289  0.48923  1.0000
  H   H169      1.0  0.27612  0.67167  0.43864  1.0000
  C   C281      1.0  0.43234  0.58612  0.35412  1.0000
  C   C282      1.0  0.48263  0.63469  0.34485  1.0000
  N   N38       1.0  0.46539  0.62865  0.41508  1.0000
  C   C283      1.0  0.44104  0.60549  0.42436  1.0000
  C   C284      1.0  0.42525  0.60379  0.49732  1.0000
  O   O3        1.0  0.43620  0.60987  0.57041  1.0000
  O   O4        1.0  0.40518  0.60662  0.48900  1.0000
  H   H170      1.0  0.39653  0.60500  0.43824  1.0000
  C   C285      1.0  0.48195  0.84645  0.35409  1.0000
  C   C286      1.0  0.43338  0.84818  0.34463  1.0000
  N   N39       1.0  0.43942  0.83706  0.41502  1.0000
  C   C287      1.0  0.46259  0.83588  0.42444  1.0000
  C   C288      1.0  0.46427  0.82186  0.49752  1.0000
  O   O5        1.0  0.45788  0.82646  0.57056  1.0000
  O   O6        1.0  0.46159  0.79901  0.48971  1.0000
  H   H171      1.0  0.46331  0.79195  0.43914  1.0000
  C   C289      1.0  0.86899  0.40979  0.35434  1.0000
  C   C290      1.0  0.87070  0.46007  0.34505  1.0000
  N   N40       1.0  0.85954  0.44286  0.41534  1.0000
  C   C291      1.0  0.85834  0.41851  0.42462  1.0000
  C   C292      1.0  0.84436  0.40277  0.49772  1.0000
  O   O7        1.0  0.84893  0.41374  0.57077  1.0000
  O   O8        1.0  0.82152  0.38256  0.48995  1.0000
  H   H172      1.0  0.81448  0.37379  0.43939  1.0000
  C   C293      1.0  0.65823  0.45937  0.35482  1.0000
  C   C294      1.0  0.60793  0.41082  0.34559  1.0000
  N   N41       1.0  0.62514  0.41684  0.41581  1.0000
  C   C295      1.0  0.64949  0.44001  0.42511  1.0000
  C   C296      1.0  0.66526  0.44168  0.49801  1.0000
  O   O9        1.0  0.65430  0.43559  0.57113  1.0000
  O   O10       1.0  0.68531  0.43882  0.48961  1.0000
  H   H173      1.0  0.69397  0.44043  0.43883  1.0000
  C   C297      1.0  0.60871  0.19910  0.35474  1.0000
  C   C298      1.0  0.65728  0.19739  0.34525  1.0000
  N   N42       1.0  0.65124  0.20855  0.41555  1.0000
  C   C299      1.0  0.62809  0.20976  0.42492  1.0000
  C   C300      1.0  0.62636  0.22376  0.49798  1.0000
  O   O11       1.0  0.63278  0.21920  0.57101  1.0000
  O   O12       1.0  0.62898  0.24659  0.49012  1.0000
  H   H174      1.0  0.62723  0.25362  0.43954  1.0000
  C   C301      1.0  0.01657  0.29414  0.34268  1.0000
  C   C302      1.0  0.07366  0.32160  0.33367  1.0000
  N   N43       1.0  0.06009  0.32430  0.40401  1.0000
  C   C303      1.0  0.03266  0.31141  0.41322  1.0000
  C   C304      1.0  0.02240  0.31830  0.48634  1.0000
  O   O13       1.0  0.03241  0.31904  0.55917  1.0000
  O   O14       1.0  0.01256  0.33327  0.47899  1.0000
  H   H175      1.0  0.00657  0.33648  0.42854  1.0000
  C   C305      1.0  0.77389  0.72259  0.34298  1.0000
  C   C306      1.0  0.74642  0.75220  0.33406  1.0000
  N   N44       1.0  0.74373  0.73595  0.40440  1.0000
  C   C307      1.0  0.75664  0.72142  0.41360  1.0000
  C   C308      1.0  0.74967  0.70426  0.48675  1.0000
  O   O15       1.0  0.74906  0.71347  0.55983  1.0000
  O   O16       1.0  0.73489  0.67944  0.47879  1.0000
  H   H176      1.0  0.73172  0.67033  0.42812  1.0000
  C   C309      1.0  0.34546  0.05147  0.34279  1.0000
  C   C310      1.0  0.31587  0.99438  0.33362  1.0000
  N   N45       1.0  0.33208  0.00793  0.40405  1.0000
  C   C311      1.0  0.34662  0.03535  0.41330  1.0000
  C   C312      1.0  0.36366  0.04554  0.48662  1.0000
  O   O17       1.0  0.35459  0.03551  0.55962  1.0000
  O   O18       1.0  0.38853  0.05580  0.47921  1.0000
  H   H177      1.0  0.39773  0.06189  0.42875  1.0000
  C   C313      1.0  0.07404  0.75128  0.34236  1.0000
  C   C314      1.0  0.01695  0.72382  0.33367  1.0000
  N   N46       1.0  0.03053  0.72111  0.40389  1.0000
  C   C315      1.0  0.05796  0.73399  0.41294  1.0000
  C   C316      1.0  0.06817  0.72704  0.48604  1.0000
  O   O19       1.0  0.05836  0.72642  0.55916  1.0000
  O   O20       1.0  0.07824  0.71228  0.47799  1.0000
  H   H178      1.0  0.08418  0.70912  0.42729  1.0000
  C   C317      1.0  0.31666  0.32283  0.34282  1.0000
  C   C318      1.0  0.34414  0.29321  0.33402  1.0000
  N   N47       1.0  0.34675  0.30942  0.40442  1.0000
  C   C319      1.0  0.33384  0.32395  0.41356  1.0000
  C   C320      1.0  0.34071  0.34103  0.48676  1.0000
  O   O21       1.0  0.34161  0.33199  0.55986  1.0000
  O   O22       1.0  0.35538  0.36590  0.47925  1.0000
  H   H179      1.0  0.35854  0.37507  0.42872  1.0000
  C   C321      1.0  0.74515  0.99399  0.34296  1.0000
  C   C322      1.0  0.77475  0.05108  0.33392  1.0000
  N   N48       1.0  0.75846  0.03751  0.40423  1.0000
  C   C323      1.0  0.74391  0.01008  0.41340  1.0000
  C   C324      1.0  0.72678  0.99987  0.48658  1.0000
  O   O23       1.0  0.73576  0.00987  0.55965  1.0000
  O   O24       1.0  0.70192  0.98961  0.47897  1.0000
  H   H180      1.0  0.69278  0.98354  0.42843  1.0000
