data_image0
_chemical_formula_structural       CNCHCNCHCNCHNC2HNC2HNC2HCNCHCNCHCNCHCNCHCNCHCNCHNC2HNC2HNC2HNC2HNC2HNC2HCNCHCNCHCNCHCNCHCNCHCNCHCNCNCNCNCNCNCNCNCNCNCNCNCNCNCNCNCNCNCNCNCNCNCNCNCNCNCNCNCNCNCNCNCNCNCNCNCNCNCNCNCNCNCNCNCNCNCNCN2C2HNC2HNC2HCNCHCNCHCNCHNC2HNC2HNC2HNC2HNC2HNC2HCNCHCNCHCNCHCNCHCNCHCNCHNC2HNC2HNC2HNC2HNC2HNC2H
_chemical_formula_sum              "C144 N96 H48"
_cell_length_a       40.9287
_cell_length_b       40.9286
_cell_length_c       14.6944
_cell_angle_alpha    90
_cell_angle_beta     90
_cell_angle_gamma    120

_space_group_name_H-M_alt    "P 1"
_space_group_IT_number       1

loop_
  _space_group_symop_operation_xyz
  'x, y, z'

loop_
  _atom_site_type_symbol
  _atom_site_label
  _atom_site_symmetry_multiplicity
  _atom_site_fract_x
  _atom_site_fract_y
  _atom_site_fract_z
  _atom_site_occupancy
  C   C1        1.0  0.01408  0.09715  0.27249  1.0000
  N   N1        1.0  0.01443  0.13063  0.27466  1.0000
  C   C2        1.0  0.01484  0.14800  0.35400  1.0000
  H   H1        1.0  0.01385  0.08555  0.21073  1.0000
  C   C3        1.0  0.92759  0.92342  0.27250  1.0000
  N   N2        1.0  0.89446  0.88994  0.27465  1.0000
  C   C4        1.0  0.87729  0.87277  0.35398  1.0000
  H   H2        1.0  0.93912  0.93488  0.21075  1.0000
  C   C5        1.0  0.10096  0.01077  0.27250  1.0000
  N   N3        1.0  0.13427  0.01076  0.27468  1.0000
  C   C6        1.0  0.15128  0.01042  0.35399  1.0000
  H   H3        1.0  0.08960  0.01102  0.21075  1.0000
  N   N4        1.0  0.12436  0.34265  0.27472  1.0000
  C   C7        1.0  0.09698  0.30568  0.27263  1.0000
  C   C8        1.0  0.08210  0.28540  0.35434  1.0000
  H   H4        1.0  0.08636  0.29333  0.21098  1.0000
  N   N5        1.0  0.68302  0.78729  0.27468  1.0000
  C   C9        1.0  0.71994  0.79668  0.27258  1.0000
  C   C10       1.0  0.74013  0.80177  0.35428  1.0000
  H   H5        1.0  0.73232  0.79855  0.21092  1.0000
  N   N6        1.0  0.23753  0.90185  0.27475  1.0000
  C   C11       1.0  0.22761  0.92900  0.27265  1.0000
  C   C12       1.0  0.22215  0.94383  0.35437  1.0000
  H   H6        1.0  0.22571  0.93950  0.21100  1.0000
  C   C13       1.0  0.30915  0.09161  0.27220  1.0000
  N   N7        1.0  0.34622  0.11874  0.27433  1.0000
  C   C14       1.0  0.36502  0.13286  0.35388  1.0000
  H   H7        1.0  0.29678  0.08105  0.21055  1.0000
  C   C15       1.0  0.80145  0.71502  0.27224  1.0000
  N   N8        1.0  0.79187  0.67805  0.27436  1.0000
  C   C16       1.0  0.78738  0.65931  0.35392  1.0000
  H   H8        1.0  0.80316  0.72736  0.21060  1.0000
  C   C17       1.0  0.93403  0.22468  0.27218  1.0000
  N   N9        1.0  0.90649  0.23405  0.27433  1.0000
  C   C18       1.0  0.89206  0.23827  0.35390  1.0000
  H   H9        1.0  0.94473  0.22308  0.21056  1.0000
  C   C19       1.0  0.28840  0.47420  0.27217  1.0000
  N   N10       1.0  0.32669  0.49281  0.27424  1.0000
  C   C20       1.0  0.34601  0.50282  0.35402  1.0000
  H   H10       1.0  0.27505  0.46828  0.21054  1.0000
  C   C21       1.0  0.55118  0.81942  0.27208  1.0000
  N   N11       1.0  0.53237  0.83890  0.27419  1.0000
  C   C22       1.0  0.52216  0.84803  0.35396  1.0000
  H   H11       1.0  0.55721  0.81210  0.21045  1.0000
  C   C23       1.0  0.20635  0.73819  0.27210  1.0000
  N   N12       1.0  0.18702  0.69989  0.27421  1.0000
  C   C24       1.0  0.17795  0.68056  0.35398  1.0000
  H   H12       1.0  0.21364  0.75154  0.21046  1.0000
  N   N13       1.0  0.49757  0.32079  0.27448  1.0000
  C   C25       1.0  0.47864  0.28250  0.27240  1.0000
  C   C26       1.0  0.46799  0.26175  0.35436  1.0000
  H   H13       1.0  0.47265  0.26914  0.21077  1.0000
  N   N14       1.0  0.84416  0.52796  0.27444  1.0000
  C   C27       1.0  0.82445  0.54653  0.27233  1.0000
  C   C28       1.0  0.81415  0.55698  0.35426  1.0000
  H   H14       1.0  0.81698  0.55241  0.21069  1.0000
  N   N15       1.0  0.70395  0.18203  0.27449  1.0000
  C   C29       1.0  0.74224  0.20156  0.27239  1.0000
  C   C30       1.0  0.76297  0.21179  0.35435  1.0000
  H   H15       1.0  0.75560  0.20894  0.21076  1.0000
  N   N16       1.0  0.16050  0.53803  0.27459  1.0000
  C   C31       1.0  0.16678  0.50845  0.27239  1.0000
  C   C32       1.0  0.16927  0.49182  0.35426  1.0000
  H   H16       1.0  0.16926  0.49833  0.21072  1.0000
  N   N17       1.0  0.48832  0.62771  0.27466  1.0000
  C   C33       1.0  0.51768  0.66369  0.27248  1.0000
  C   C34       1.0  0.53413  0.68289  0.35439  1.0000
  H   H17       1.0  0.52776  0.67632  0.21082  1.0000
  N   N18       1.0  0.39752  0.86628  0.27465  1.0000
  C   C35       1.0  0.36172  0.86018  0.27244  1.0000
  C   C36       1.0  0.34262  0.85782  0.35427  1.0000
  H   H18       1.0  0.34913  0.85770  0.21075  1.0000
  C   C37       1.0  0.51160  0.15995  0.27216  1.0000
  N   N19       1.0  0.54129  0.15384  0.27424  1.0000
  C   C38       1.0  0.55719  0.15205  0.35386  1.0000
  H   H19       1.0  0.50121  0.16207  0.21054  1.0000
  C   C39       1.0  0.66842  0.51270  0.27216  1.0000
  N   N20       1.0  0.63256  0.48310  0.27423  1.0000
  C   C40       1.0  0.61484  0.46725  0.35385  1.0000
  H   H20       1.0  0.68093  0.52309  0.21054  1.0000
  C   C41       1.0  0.86498  0.35739  0.27208  1.0000
  N   N21       1.0  0.87159  0.39336  0.27414  1.0000
  C   C42       1.0  0.87371  0.41117  0.35379  1.0000
  H   H21       1.0  0.86272  0.34483  0.21045  1.0000
  C   C43       1.0  0.03414  0.56344  0.27178  1.0000
  N   N22       1.0  0.99592  0.54401  0.27390  1.0000
  C   C44       1.0  0.97681  0.53507  0.35386  1.0000
  H   H22       1.0  0.04755  0.56895  0.21027  1.0000
  C   C45       1.0  0.46281  0.47568  0.27169  1.0000
  N   N23       1.0  0.48211  0.45676  0.27384  1.0000
  C   C46       1.0  0.49105  0.44657  0.35381  1.0000
  H   H23       1.0  0.45730  0.48357  0.21017  1.0000
  C   C47       1.0  0.54968  0.99208  0.27171  1.0000
  N   N24       1.0  0.56851  0.03029  0.27382  1.0000
  C   C48       1.0  0.57865  0.04942  0.35378  1.0000
  H   H24       1.0  0.54178  0.97867  0.21019  1.0000
  C   C49       1.0  0.98044  0.97679  0.35402  1.0000
  N   N25       1.0  0.01405  0.97736  0.35402  1.0000
  C   C50       1.0  0.04766  0.01041  0.35399  1.0000
  N   N26       1.0  0.04709  0.04346  0.35396  1.0000
  C   C51       1.0  0.01403  0.04401  0.35398  1.0000
  N   N27       1.0  0.98097  0.01039  0.35400  1.0000
  C   C52       1.0  0.98199  0.21663  0.35396  1.0000
  N   N28       1.0  0.98205  0.18334  0.35390  1.0000
  C   C53       1.0  0.01511  0.18272  0.35401  1.0000
  N   N29       1.0  0.04837  0.21623  0.35415  1.0000
  C   C54       1.0  0.04879  0.24978  0.35418  1.0000
  N   N30       1.0  0.01547  0.24938  0.35410  1.0000
  C   C55       1.0  0.80937  0.77101  0.35400  1.0000
  N   N31       1.0  0.84252  0.80453  0.35391  1.0000
  C   C56       1.0  0.84282  0.83806  0.35398  1.0000
  N   N32       1.0  0.80917  0.83749  0.35411  1.0000
  C   C57       1.0  0.77580  0.80423  0.35420  1.0000
  N   N33       1.0  0.77647  0.77145  0.35415  1.0000
  C   C58       1.0  0.25297  0.04381  0.35394  1.0000
  N   N34       1.0  0.21951  0.04357  0.35385  1.0000
  C   C59       1.0  0.18590  0.01041  0.35400  1.0000
  N   N35       1.0  0.18634  0.97725  0.35419  1.0000
  C   C60       1.0  0.21956  0.97700  0.35424  1.0000
  N   N36       1.0  0.25237  0.01040  0.35413  1.0000
  C   C61       1.0  0.22862  0.44966  0.35409  1.0000
  N   N37       1.0  0.20284  0.41214  0.35409  1.0000
  C   C62       1.0  0.16524  0.40016  0.35417  1.0000
  N   N38       1.0  0.15371  0.42618  0.35426  1.0000
  C   C63       1.0  0.17942  0.46374  0.35422  1.0000
  N   N39       1.0  0.21666  0.47508  0.35415  1.0000
  C   C64       1.0  0.57592  0.78435  0.35404  1.0000
  N   N40       1.0  0.61348  0.79619  0.35399  1.0000
  C   C65       1.0  0.62553  0.77062  0.35416  1.0000
  N   N41       1.0  0.59961  0.73307  0.35437  1.0000
  C   C66       1.0  0.56205  0.72114  0.35434  1.0000
  N   N42       1.0  0.55058  0.74694  0.35420  1.0000
  C   C67       1.0  0.24119  0.79805  0.35407  1.0000
  N   N43       1.0  0.22923  0.82367  0.35407  1.0000
  C   C68       1.0  0.25469  0.86133  0.35420  1.0000
  N   N44       1.0  0.29229  0.87307  0.35433  1.0000
  C   C69       1.0  0.30435  0.84752  0.35428  1.0000
  N   N45       1.0  0.27862  0.81025  0.35416  1.0000
  C   C70       1.0  0.45360  0.22265  0.35427  1.0000
  N   N46       1.0  0.41603  0.19702  0.35408  1.0000
  C   C71       1.0  0.40382  0.15936  0.35393  1.0000
  N   N47       1.0  0.42969  0.14763  0.35394  1.0000
  C   C72       1.0  0.46730  0.17318  0.35416  1.0000
  N   N48       1.0  0.47884  0.21046  0.35432  1.0000
  C   C73       1.0  0.78919  0.57107  0.35426  1.0000
  N   N49       1.0  0.80095  0.60860  0.35407  1.0000
  C   C74       1.0  0.77532  0.62058  0.35396  1.0000
  N   N50       1.0  0.73778  0.59457  0.35398  1.0000
  C   C75       1.0  0.72593  0.55701  0.35420  1.0000
  N   N51       1.0  0.75181  0.54565  0.35432  1.0000
  C   C76       1.0  0.80206  0.23661  0.35429  1.0000
  N   N52       1.0  0.82775  0.22474  0.35412  1.0000
  C   C77       1.0  0.86539  0.25030  0.35394  1.0000
  N   N53       1.0  0.87703  0.28786  0.35392  1.0000
  C   C78       1.0  0.85140  0.29980  0.35413  1.0000
  N   N54       1.0  0.81414  0.27402  0.35430  1.0000
  C   C79       1.0  0.14570  0.57966  0.35423  1.0000
  N   N55       1.0  0.16944  0.61770  0.35417  1.0000
  C   C80       1.0  0.15507  0.64141  0.35404  1.0000
  N   N56       1.0  0.11718  0.62705  0.35396  1.0000
  C   C81       1.0  0.09365  0.58925  0.35403  1.0000
  N   N57       1.0  0.10793  0.56573  0.35416  1.0000
  C   C82       1.0  0.44687  0.57123  0.35426  1.0000
  N   N58       1.0  0.40885  0.55699  0.35422  1.0000
  C   C83       1.0  0.38513  0.51894  0.35403  1.0000
  N   N59       1.0  0.39943  0.49536  0.35390  1.0000
  C   C84       1.0  0.43722  0.50958  0.35396  1.0000
  N   N60       1.0  0.46079  0.54738  0.35413  1.0000
  C   C85       1.0  0.45390  0.88079  0.35428  1.0000
  N   N61       1.0  0.46801  0.85688  0.35421  1.0000
  C   C86       1.0  0.50606  0.87107  0.35403  1.0000
  N   N62       1.0  0.52975  0.90892  0.35392  1.0000
  C   C87       1.0  0.51567  0.93261  0.35401  1.0000
  N   N63       1.0  0.47790  0.91852  0.35418  1.0000
  C   C88       1.0  0.58355  0.13988  0.35395  1.0000
  N   N64       1.0  0.62156  0.16384  0.35419  1.0000
  C   C89       1.0  0.64548  0.14972  0.35421  1.0000
  N   N65       1.0  0.63138  0.11187  0.35404  1.0000
  C   C90       1.0  0.59363  0.08816  0.35383  1.0000
  N   N66       1.0  0.56988  0.10215  0.35377  1.0000
  C   C91       1.0  0.57627  0.44106  0.35394  1.0000
  N   N67       1.0  0.56202  0.40303  0.35417  1.0000
  C   C92       1.0  0.52395  0.37928  0.35420  1.0000
  N   N68       1.0  0.50038  0.39359  0.35405  1.0000
  C   C93       1.0  0.51462  0.43137  0.35384  1.0000
  N   N69       1.0  0.55240  0.45495  0.35377  1.0000
  C   C94       1.0  0.88615  0.44973  0.35392  1.0000
  N   N70       1.0  0.86231  0.46390  0.35415  1.0000
  C   C95       1.0  0.87658  0.50195  0.35422  1.0000
  N   N71       1.0  0.91444  0.52559  0.35410  1.0000
  C   C96       1.0  0.93805  0.51141  0.35390  1.0000
  N   N72       1.0  0.92391  0.47364  0.35377  1.0000
  N   N73       1.0  0.01483  0.13083  0.43333  1.0000
  C   C97       1.0  0.01449  0.09735  0.43548  1.0000
  C   C98       1.0  0.01410  0.07881  0.35398  1.0000
  H   H25       1.0  0.01456  0.08589  0.49724  1.0000
  N   N74       1.0  0.89422  0.89015  0.43333  1.0000
  C   C99       1.0  0.92735  0.92364  0.43550  1.0000
  C   C100      1.0  0.94571  0.94197  0.35401  1.0000
  H   H26       1.0  0.93871  0.93526  0.49726  1.0000
  N   N75       1.0  0.13393  0.01007  0.43331  1.0000
  C   C101      1.0  0.10061  0.01007  0.43548  1.0000
  C   C102      1.0  0.08244  0.01042  0.35399  1.0000
  H   H27       1.0  0.08900  0.00981  0.49723  1.0000
  C   C103      1.0  0.09678  0.30580  0.43597  1.0000
  N   N76       1.0  0.12418  0.34276  0.43381  1.0000
  C   C104      1.0  0.13856  0.36143  0.35425  1.0000
  H   H28       1.0  0.08606  0.29351  0.49761  1.0000
  C   C105      1.0  0.71969  0.79587  0.43593  1.0000
  N   N77       1.0  0.68279  0.78652  0.43378  1.0000
  C   C106      1.0  0.66424  0.78263  0.35424  1.0000
  H   H29       1.0  0.73191  0.79723  0.49754  1.0000
  C   C107      1.0  0.22812  0.92934  0.43600  1.0000
  N   N78       1.0  0.23800  0.90216  0.43382  1.0000
  C   C108      1.0  0.24239  0.88784  0.35427  1.0000
  H   H30       1.0  0.22651  0.94004  0.49763  1.0000
  N   N79       1.0  0.34622  0.11870  0.43341  1.0000
  C   C109      1.0  0.30913  0.09159  0.43552  1.0000
  C   C110      1.0  0.28873  0.07699  0.35383  1.0000
  H   H31       1.0  0.29678  0.08096  0.49715  1.0000
  N   N80       1.0  0.79181  0.67804  0.43346  1.0000
  C   C111      1.0  0.80142  0.71502  0.43559  1.0000
  C   C112      1.0  0.80701  0.73536  0.35390  1.0000
  H   H32       1.0  0.80303  0.72732  0.49722  1.0000
  N   N81       1.0  0.90640  0.23391  0.43346  1.0000
  C   C113      1.0  0.93392  0.22451  0.43560  1.0000
  C   C114      1.0  0.94883  0.21918  0.35388  1.0000
  H   H33       1.0  0.94458  0.22286  0.49724  1.0000
  N   N82       1.0  0.32673  0.49313  0.43386  1.0000
  C   C115      1.0  0.28845  0.47453  0.43602  1.0000
  C   C116      1.0  0.26766  0.46375  0.35413  1.0000
  H   H34       1.0  0.27512  0.46885  0.49766  1.0000
  N   N83       1.0  0.53199  0.83856  0.43378  1.0000
  C   C117      1.0  0.55080  0.81908  0.43594  1.0000
  C   C118      1.0  0.56165  0.80916  0.35403  1.0000
  H   H35       1.0  0.55654  0.81148  0.49758  1.0000
  N   N84       1.0  0.18735  0.69988  0.43380  1.0000
  C   C119      1.0  0.20668  0.73817  0.43593  1.0000
  C   C120      1.0  0.21649  0.75894  0.35403  1.0000
  H   H36       1.0  0.21422  0.75151  0.49757  1.0000
  C   C121      1.0  0.47887  0.28253  0.43624  1.0000
  N   N85       1.0  0.49778  0.32082  0.43408  1.0000
  C   C122      1.0  0.50774  0.34013  0.35426  1.0000
  H   H37       1.0  0.47302  0.26920  0.49788  1.0000
  C   C123      1.0  0.82419  0.54626  0.43618  1.0000
  N   N86       1.0  0.84392  0.52770  0.43406  1.0000
  C   C124      1.0  0.85351  0.51800  0.35424  1.0000
  H   H38       1.0  0.81656  0.55196  0.49781  1.0000
  C   C125      1.0  0.74221  0.20180  0.43625  1.0000
  N   N87       1.0  0.70392  0.18226  0.43407  1.0000
  C   C126      1.0  0.68460  0.17281  0.35426  1.0000
  H   H39       1.0  0.75554  0.20935  0.49789  1.0000
  C   C127      1.0  0.16649  0.50825  0.43617  1.0000
  N   N88       1.0  0.16022  0.53784  0.43402  1.0000
  C   C128      1.0  0.15812  0.55351  0.35432  1.0000
  H   H40       1.0  0.16878  0.49799  0.49783  1.0000
  C   C129      1.0  0.51781  0.66362  0.43630  1.0000
  N   N89       1.0  0.48844  0.62765  0.43413  1.0000
  C   C130      1.0  0.47295  0.60980  0.35441  1.0000
  H   H41       1.0  0.52797  0.67622  0.49796  1.0000
  C   C131      1.0  0.36179  0.86045  0.43617  1.0000
  N   N90       1.0  0.39759  0.86654  0.43402  1.0000
  C   C132      1.0  0.41537  0.86859  0.35437  1.0000
  H   H42       1.0  0.34925  0.85815  0.49783  1.0000
  N   N91       1.0  0.54186  0.15461  0.43365  1.0000
  C   C133      1.0  0.51218  0.16075  0.43593  1.0000
  C   C134      1.0  0.49531  0.16292  0.35413  1.0000
  H   H43       1.0  0.50221  0.16342  0.49762  1.0000
  N   N92       1.0  0.63276  0.48254  0.43365  1.0000
  C   C135      1.0  0.66863  0.51211  0.43593  1.0000
  C   C136      1.0  0.68770  0.52894  0.35413  1.0000
  H   H44       1.0  0.68127  0.52210  0.49763  1.0000
  N   N93       1.0  0.87090  0.39320  0.43361  1.0000
  C   C137      1.0  0.86427  0.35722  0.43589  1.0000
  C   C138      1.0  0.86176  0.33806  0.35405  1.0000
  H   H45       1.0  0.86151  0.34454  0.49758  1.0000
  N   N94       1.0  0.99589  0.54422  0.43389  1.0000
  C   C139      1.0  0.03410  0.56369  0.43610  1.0000
  C   C140      1.0  0.05465  0.57394  0.35397  1.0000
  H   H46       1.0  0.04749  0.56930  0.49767  1.0000
  N   N95       1.0  0.48198  0.45661  0.43382  1.0000
  C   C141      1.0  0.46265  0.47549  0.43604  1.0000
  C   C142      1.0  0.45248  0.48585  0.35388  1.0000
  H   H47       1.0  0.45711  0.48334  0.49759  1.0000
  N   N96       1.0  0.56861  0.03033  0.43380  1.0000
  C   C143      1.0  0.54981  0.99212  0.43604  1.0000
  C   C144      1.0  0.53953  0.97158  0.35390  1.0000
  H   H48       1.0  0.54193  0.97874  0.49760  1.0000
