data_image0
_chemical_formula_structural       C2NCNH2C2NCNH2C2NCNH2NCHNCHNCHNCHNCHNCHNC18H12NC18H12NC18H12NC18H12NC18H12NC18H12NCHNCHNCHC2NCNH2C2NCNH2C2NCNH2C2NCNH2C2NCNH2C2NCNH2
_chemical_formula_sum              "C144 N33 H99"
_cell_length_a       52.2559
_cell_length_b       52.2559
_cell_length_c       14.857
_cell_angle_alpha    90
_cell_angle_beta     90
_cell_angle_gamma    120

_space_group_name_H-M_alt    "P 1"
_space_group_IT_number       1

loop_
  _space_group_symop_operation_xyz
  'x, y, z'

loop_
  _atom_site_type_symbol
  _atom_site_label
  _atom_site_symmetry_multiplicity
  _atom_site_fract_x
  _atom_site_fract_y
  _atom_site_fract_z
  _atom_site_occupancy
  C   C1        1.0  0.03844  0.52177  0.33963  1.0000
  C   C2        1.0  0.97594  0.48875  0.34918  1.0000
  N   N1        1.0  0.99077  0.50624  0.27767  1.0000
  C   C3        1.0  0.02070  0.52279  0.26859  1.0000
  N   N2        1.0  0.03112  0.54002  0.19431  1.0000
  H   H1        1.0  0.05193  0.55435  0.18698  1.0000
  H   H2        1.0  0.01752  0.54025  0.14995  1.0000
  C   C4        1.0  0.49024  0.51909  0.33965  1.0000
  C   C5        1.0  0.52326  0.48961  0.34914  1.0000
  N   N3        1.0  0.50574  0.48691  0.27770  1.0000
  C   C6        1.0  0.48918  0.50029  0.26867  1.0000
  N   N4        1.0  0.47193  0.49347  0.19442  1.0000
  H   H3        1.0  0.45761  0.49997  0.18712  1.0000
  H   H4        1.0  0.47168  0.47964  0.15009  1.0000
  C   C7        1.0  0.49293  0.97354  0.33967  1.0000
  C   C8        1.0  0.52241  0.03605  0.34920  1.0000
  N   N5        1.0  0.52510  0.02122  0.27774  1.0000
  C   C9        1.0  0.51172  0.99128  0.26868  1.0000
  N   N6        1.0  0.51853  0.98086  0.19440  1.0000
  H   H5        1.0  0.51212  0.96005  0.18735  1.0000
  H   H6        1.0  0.53244  0.99445  0.15023  1.0000
  N   N7        1.0  0.27383  0.56712  0.28222  1.0000
  C   C10       1.0  0.30050  0.56899  0.27271  1.0000
  H   H7        1.0  0.31412  0.58194  0.22239  1.0000
  N   N8        1.0  0.44497  0.70915  0.28231  1.0000
  C   C11       1.0  0.44311  0.73396  0.27272  1.0000
  H   H8        1.0  0.43003  0.73456  0.22270  1.0000
  N   N9        1.0  0.30290  0.73821  0.28225  1.0000
  C   C12       1.0  0.27809  0.71154  0.27271  1.0000
  H   H9        1.0  0.27749  0.69787  0.22266  1.0000
  N   N10       1.0  0.74204  0.44346  0.27838  1.0000
  C   C13       1.0  0.71551  0.44184  0.26808  1.0000
  H   H10       1.0  0.70223  0.42933  0.21658  1.0000
  N   N11       1.0  0.56854  0.30096  0.27834  1.0000
  C   C14       1.0  0.57017  0.27604  0.26808  1.0000
  H   H11       1.0  0.58263  0.27525  0.21648  1.0000
  N   N12       1.0  0.71106  0.26993  0.27836  1.0000
  C   C15       1.0  0.73598  0.29647  0.26804  1.0000
  H   H12       1.0  0.73668  0.30979  0.21677  1.0000
  N   N13       1.0  0.16476  0.58264  0.34945  1.0000
  C   C16       1.0  0.18158  0.61394  0.34310  1.0000
  C   C17       1.0  0.13337  0.56721  0.34652  1.0000
  C   C18       1.0  0.18154  0.56804  0.35251  1.0000
  C   C19       1.0  0.19609  0.56844  0.43302  1.0000
  C   C20       1.0  0.21910  0.56181  0.43261  1.0000
  C   C21       1.0  0.22795  0.55399  0.35194  1.0000
  C   C22       1.0  0.21265  0.55277  0.27189  1.0000
  C   C23       1.0  0.18990  0.55978  0.27209  1.0000
  C   C24       1.0  0.19170  0.63115  0.42210  1.0000
  C   C25       1.0  0.21477  0.66074  0.41868  1.0000
  C   C26       1.0  0.22899  0.67396  0.33639  1.0000
  C   C27       1.0  0.21756  0.65695  0.25685  1.0000
  C   C28       1.0  0.19434  0.62743  0.26015  1.0000
  C   C29       1.0  0.11694  0.56787  0.42099  1.0000
  C   C30       1.0  0.08579  0.55288  0.41854  1.0000
  C   C31       1.0  0.07003  0.53702  0.34109  1.0000
  C   C32       1.0  0.08665  0.53584  0.26751  1.0000
  C   C33       1.0  0.11779  0.55088  0.26986  1.0000
  H   H13       1.0  0.22260  0.67173  0.47831  1.0000
  H   H14       1.0  0.18376  0.62157  0.48344  1.0000
  H   H15       1.0  0.18810  0.61518  0.20230  1.0000
  H   H16       1.0  0.22671  0.66548  0.19551  1.0000
  H   H17       1.0  0.19169  0.57600  0.49114  1.0000
  H   H18       1.0  0.23076  0.56488  0.49082  1.0000
  H   H19       1.0  0.12763  0.57932  0.47768  1.0000
  H   H20       1.0  0.07469  0.55412  0.47360  1.0000
  H   H21       1.0  0.07617  0.52380  0.21136  1.0000
  H   H22       1.0  0.12906  0.54991  0.21498  1.0000
  H   H23       1.0  0.18098  0.56092  0.21206  1.0000
  H   H24       1.0  0.21899  0.54822  0.21157  1.0000
  N   N14       1.0  0.42943  0.58458  0.34969  1.0000
  C   C34       1.0  0.39813  0.57011  0.34329  1.0000
  C   C35       1.0  0.44484  0.56861  0.34666  1.0000
  C   C36       1.0  0.44404  0.61597  0.35256  1.0000
  C   C37       1.0  0.44359  0.63012  0.43301  1.0000
  C   C38       1.0  0.45031  0.65979  0.43264  1.0000
  C   C39       1.0  0.45816  0.67645  0.35197  1.0000
  C   C40       1.0  0.45935  0.66235  0.27193  1.0000
  C   C41       1.0  0.45236  0.63259  0.27216  1.0000
  C   C42       1.0  0.38092  0.56303  0.42227  1.0000
  C   C43       1.0  0.35135  0.55658  0.41883  1.0000
  C   C44       1.0  0.33811  0.55752  0.33651  1.0000
  C   C45       1.0  0.35512  0.56309  0.25699  1.0000
  C   C46       1.0  0.38465  0.56940  0.26032  1.0000
  C   C47       1.0  0.44420  0.55153  0.42115  1.0000
  C   C48       1.0  0.45918  0.53537  0.41865  1.0000
  C   C49       1.0  0.47500  0.53543  0.34113  1.0000
  C   C50       1.0  0.47616  0.55322  0.26753  1.0000
  C   C51       1.0  0.46112  0.56933  0.26994  1.0000
  H   H25       1.0  0.34033  0.55334  0.47844  1.0000
  H   H26       1.0  0.39048  0.56465  0.48362  1.0000
  H   H27       1.0  0.39690  0.57539  0.20247  1.0000
  H   H28       1.0  0.34659  0.56369  0.19563  1.0000
  H   H29       1.0  0.43610  0.61819  0.49122  1.0000
  H   H30       1.0  0.44726  0.66838  0.49085  1.0000
  H   H31       1.0  0.43278  0.55080  0.47788  1.0000
  H   H32       1.0  0.45796  0.52304  0.47372  1.0000
  H   H33       1.0  0.48817  0.55475  0.21134  1.0000
  H   H34       1.0  0.46208  0.58154  0.21505  1.0000
  H   H35       1.0  0.45116  0.62252  0.21212  1.0000
  H   H36       1.0  0.46390  0.67323  0.21160  1.0000
  N   N15       1.0  0.42746  0.84723  0.34971  1.0000
  C   C52       1.0  0.44193  0.83040  0.34329  1.0000
  C   C53       1.0  0.44342  0.87862  0.34668  1.0000
  C   C54       1.0  0.39606  0.83044  0.35254  1.0000
  C   C55       1.0  0.38193  0.81585  0.43302  1.0000
  C   C56       1.0  0.35227  0.79288  0.43256  1.0000
  C   C57       1.0  0.33561  0.78410  0.35190  1.0000
  C   C58       1.0  0.34971  0.79941  0.27186  1.0000
  C   C59       1.0  0.37947  0.82216  0.27210  1.0000
  C   C60       1.0  0.44903  0.82031  0.42231  1.0000
  C   C61       1.0  0.45550  0.79721  0.41884  1.0000
  C   C62       1.0  0.45456  0.78303  0.33650  1.0000
  C   C63       1.0  0.44899  0.79447  0.25697  1.0000
  C   C64       1.0  0.44266  0.81767  0.26030  1.0000
  C   C65       1.0  0.46048  0.89506  0.42119  1.0000
  C   C66       1.0  0.47663  0.92620  0.41870  1.0000
  C   C67       1.0  0.47658  0.94195  0.34115  1.0000
  C   C68       1.0  0.45883  0.92532  0.26752  1.0000
  C   C69       1.0  0.44272  0.89418  0.26992  1.0000
  H   H37       1.0  0.45876  0.78943  0.47843  1.0000
  H   H38       1.0  0.44741  0.82826  0.48365  1.0000
  H   H39       1.0  0.43667  0.82394  0.20246  1.0000
  H   H40       1.0  0.44840  0.78534  0.19561  1.0000
  H   H41       1.0  0.39386  0.82031  0.49124  1.0000
  H   H42       1.0  0.34364  0.78127  0.49081  1.0000
  H   H43       1.0  0.46120  0.88438  0.47795  1.0000
  H   H44       1.0  0.48895  0.93731  0.47379  1.0000
  H   H45       1.0  0.45730  0.93580  0.21130  1.0000
  H   H46       1.0  0.43052  0.88291  0.21501  1.0000
  H   H47       1.0  0.38955  0.83105  0.21208  1.0000
  H   H48       1.0  0.33883  0.79310  0.21152  1.0000
  N   N16       1.0  0.84932  0.42565  0.34827  1.0000
  C   C70       1.0  0.83257  0.39444  0.33963  1.0000
  C   C71       1.0  0.88063  0.44115  0.34832  1.0000
  C   C72       1.0  0.83276  0.44043  0.35277  1.0000
  C   C73       1.0  0.81691  0.43843  0.43191  1.0000
  C   C74       1.0  0.79434  0.44566  0.43089  1.0000
  C   C75       1.0  0.78719  0.45550  0.35100  1.0000
  C   C76       1.0  0.80380  0.45830  0.27253  1.0000
  C   C77       1.0  0.82632  0.45095  0.27341  1.0000
  C   C78       1.0  0.82343  0.37671  0.41766  1.0000
  C   C79       1.0  0.80021  0.34720  0.41384  1.0000
  C   C80       1.0  0.78505  0.33446  0.33219  1.0000
  C   C81       1.0  0.79577  0.35201  0.25330  1.0000
  C   C82       1.0  0.81897  0.38153  0.25698  1.0000
  C   C83       1.0  0.89636  0.44832  0.43014  1.0000
  C   C84       1.0  0.92752  0.46369  0.43078  1.0000
  C   C85       1.0  0.94415  0.47265  0.34977  1.0000
  C   C86       1.0  0.92792  0.46548  0.26803  1.0000
  C   C87       1.0  0.89675  0.44987  0.26717  1.0000
  H   H49       1.0  0.79307  0.33587  0.47320  1.0000
  H   H50       1.0  0.83206  0.38592  0.47892  1.0000
  H   H51       1.0  0.82455  0.39420  0.20004  1.0000
  H   H52       1.0  0.78608  0.34394  0.19223  1.0000
  H   H53       1.0  0.82018  0.42951  0.48900  1.0000
  H   H54       1.0  0.78180  0.44166  0.48765  1.0000
  H   H55       1.0  0.88512  0.44241  0.48987  1.0000
  H   H56       1.0  0.93785  0.46891  0.49192  1.0000
  H   H57       1.0  0.93866  0.47123  0.20746  1.0000
  H   H58       1.0  0.88582  0.44494  0.20696  1.0000
  H   H59       1.0  0.83642  0.45115  0.21426  1.0000
  H   H60       1.0  0.79864  0.46434  0.21269  1.0000
  N   N17       1.0  0.58637  0.42609  0.34797  1.0000
  C   C88       1.0  0.61758  0.44056  0.33940  1.0000
  C   C89       1.0  0.57086  0.44189  0.34812  1.0000
  C   C90       1.0  0.57161  0.39476  0.35262  1.0000
  C   C91       1.0  0.57360  0.38091  0.43178  1.0000
  C   C92       1.0  0.56637  0.35110  0.43084  1.0000
  C   C93       1.0  0.55653  0.33409  0.35100  1.0000
  C   C94       1.0  0.55378  0.34790  0.27247  1.0000
  C   C95       1.0  0.56110  0.37777  0.27329  1.0000
  C   C96       1.0  0.63530  0.44918  0.41746  1.0000
  C   C97       1.0  0.66480  0.45542  0.41369  1.0000
  C   C98       1.0  0.67756  0.45302  0.33205  1.0000
  C   C99       1.0  0.66003  0.44620  0.25314  1.0000
  C   C100      1.0  0.63050  0.43988  0.25678  1.0000
  C   C101      1.0  0.56377  0.45052  0.42997  1.0000
  C   C102      1.0  0.54838  0.46628  0.43066  1.0000
  C   C103      1.0  0.53936  0.47392  0.34968  1.0000
  C   C104      1.0  0.54644  0.46477  0.26793  1.0000
  C   C105      1.0  0.56206  0.44923  0.26701  1.0000
  H   H61       1.0  0.67612  0.45959  0.47308  1.0000
  H   H62       1.0  0.62608  0.44853  0.47875  1.0000
  H   H63       1.0  0.61784  0.43279  0.19983  1.0000
  H   H64       1.0  0.66810  0.44458  0.19209  1.0000
  H   H65       1.0  0.58251  0.39310  0.48887  1.0000
  H   H66       1.0  0.57037  0.34258  0.48764  1.0000
  H   H67       1.0  0.56974  0.44523  0.48966  1.0000
  H   H68       1.0  0.54325  0.47147  0.49182  1.0000
  H   H69       1.0  0.54066  0.46974  0.20737  1.0000
  H   H70       1.0  0.56693  0.44318  0.20679  1.0000
  H   H71       1.0  0.56090  0.38766  0.21411  1.0000
  H   H72       1.0  0.54772  0.33669  0.21266  1.0000
  N   N18       1.0  0.58596  0.16267  0.34824  1.0000
  C   C106      1.0  0.57149  0.17941  0.33963  1.0000
  C   C107      1.0  0.57015  0.13136  0.34830  1.0000
  C   C108      1.0  0.61730  0.17924  0.35271  1.0000
  C   C109      1.0  0.63116  0.19508  0.43184  1.0000
  C   C110      1.0  0.66097  0.21765  0.43078  1.0000
  C   C111      1.0  0.67797  0.22478  0.35091  1.0000
  C   C112      1.0  0.66412  0.20819  0.27243  1.0000
  C   C113      1.0  0.63426  0.18564  0.27335  1.0000
  C   C114      1.0  0.56289  0.18853  0.41768  1.0000
  C   C115      1.0  0.55665  0.21179  0.41389  1.0000
  C   C116      1.0  0.55905  0.22694  0.33224  1.0000
  C   C117      1.0  0.56585  0.21621  0.25332  1.0000
  C   C118      1.0  0.57217  0.19301  0.25698  1.0000
  C   C119      1.0  0.56153  0.11563  0.43012  1.0000
  C   C120      1.0  0.54576  0.08448  0.43078  1.0000
  C   C121      1.0  0.53811  0.06784  0.34977  1.0000
  C   C122      1.0  0.54724  0.08407  0.26804  1.0000
  C   C123      1.0  0.56280  0.11523  0.26716  1.0000
  H   H73       1.0  0.55251  0.21897  0.47327  1.0000
  H   H74       1.0  0.56355  0.17997  0.47897  1.0000
  H   H75       1.0  0.57926  0.18744  0.20004  1.0000
  H   H76       1.0  0.56748  0.22591  0.19227  1.0000
  H   H77       1.0  0.61897  0.19185  0.48889  1.0000
  H   H78       1.0  0.66951  0.23019  0.48752  1.0000
  H   H79       1.0  0.56682  0.12688  0.48984  1.0000
  H   H80       1.0  0.54058  0.07415  0.49192  1.0000
  H   H81       1.0  0.54228  0.07333  0.20747  1.0000
  H   H82       1.0  0.56885  0.12617  0.20695  1.0000
  H   H83       1.0  0.62433  0.17555  0.21420  1.0000
  H   H84       1.0  0.67533  0.21331  0.21262  1.0000
  N   N19       1.0  0.02386  0.50447  0.41167  1.0000
  C   C124      1.0  0.99399  0.48837  0.41951  1.0000
  H   H85       1.0  0.98526  0.47561  0.47551  1.0000
  N   N20       1.0  0.50759  0.52184  0.41161  1.0000
  C   C125      1.0  0.52369  0.50807  0.41941  1.0000
  H   H86       1.0  0.53648  0.51213  0.47537  1.0000
  N   N21       1.0  0.49019  0.98814  0.41165  1.0000
  C   C126      1.0  0.50394  0.01800  0.41945  1.0000
  H   H87       1.0  0.49992  0.02673  0.47547  1.0000
  C   C127      1.0  0.25404  0.55172  0.34845  1.0000
  C   C128      1.0  0.30946  0.55486  0.33605  1.0000
  N   N22       1.0  0.28961  0.53955  0.40229  1.0000
  C   C129      1.0  0.26242  0.53685  0.41184  1.0000
  N   N23       1.0  0.24512  0.51950  0.47965  1.0000
  H   H88       1.0  0.22456  0.51426  0.48484  1.0000
  H   H89       1.0  0.25196  0.50908  0.51826  1.0000
  C   C130      1.0  0.46046  0.70482  0.34838  1.0000
  C   C131      1.0  0.45726  0.75707  0.33599  1.0000
  N   N24       1.0  0.47264  0.75258  0.40213  1.0000
  C   C132      1.0  0.47537  0.72810  0.41167  1.0000
  N   N25       1.0  0.49280  0.72821  0.47928  1.0000
  H   H90       1.0  0.49778  0.71272  0.48530  1.0000
  H   H91       1.0  0.50297  0.74531  0.51858  1.0000
  C   C133      1.0  0.30722  0.75805  0.34826  1.0000
  C   C134      1.0  0.25498  0.70260  0.33594  1.0000
  N   N26       1.0  0.25946  0.72249  0.40202  1.0000
  C   C135      1.0  0.28394  0.74969  0.41153  1.0000
  N   N27       1.0  0.28384  0.76702  0.47915  1.0000
  H   H92       1.0  0.29934  0.78749  0.48515  1.0000
  H   H93       1.0  0.26674  0.76010  0.51846  1.0000
  C   C136      1.0  0.76140  0.45822  0.34617  1.0000
  C   C137      1.0  0.70618  0.45553  0.33201  1.0000
  N   N28       1.0  0.72568  0.47017  0.39975  1.0000
  C   C138      1.0  0.75271  0.47259  0.41036  1.0000
  N   N29       1.0  0.76953  0.48907  0.48021  1.0000
  H   H94       1.0  0.78986  0.49366  0.48741  1.0000
  H   H95       1.0  0.76246  0.49896  0.52015  1.0000
  C   C139      1.0  0.55384  0.30559  0.34623  1.0000
  C   C140      1.0  0.55656  0.25308  0.33220  1.0000
  N   N30       1.0  0.54196  0.25795  0.40000  1.0000
  C   C141      1.0  0.53953  0.28256  0.41058  1.0000
  N   N31       1.0  0.52311  0.28295  0.48054  1.0000
  H   H96       1.0  0.51833  0.29857  0.48724  1.0000
  H   H97       1.0  0.51309  0.26590  0.52010  1.0000
  C   C142      1.0  0.70649  0.25055  0.34603  1.0000
  C   C143      1.0  0.75896  0.30581  0.33206  1.0000
  N   N32       1.0  0.75412  0.28631  0.39976  1.0000
  C   C144      1.0  0.72953  0.25926  0.41031  1.0000
  N   N33       1.0  0.72919  0.24243  0.48011  1.0000
  H   H98       1.0  0.71343  0.22213  0.48754  1.0000
  H   H99       1.0  0.74610  0.24956  0.52032  1.0000
