data_image0
_chemical_formula_structural       C3NC3NC5NC4NC35H25C21H18C16H16C6H4C4H4C8H4C6H4C4H4C8H4C18H17C3NC3NC2NC5NC34H24C3NC3NC5NC5NC36H26C2H2C4H2C4H2C4H2C2H2C2H2C2H2C4H2C4H2C4H2C2H2C2H2
_chemical_formula_sum              "C276 N12 H174"
_cell_length_a       67.3449
_cell_length_b       67.345
_cell_length_c       14.955
_cell_angle_alpha    89.803
_cell_angle_beta     90.197
_cell_angle_gamma    120

_space_group_name_H-M_alt    "P 1"
_space_group_IT_number       1

loop_
  _space_group_symop_operation_xyz
  'x, y, z'

loop_
  _atom_site_type_symbol
  _atom_site_label
  _atom_site_symmetry_multiplicity
  _atom_site_fract_x
  _atom_site_fract_y
  _atom_site_fract_z
  _atom_site_occupancy
  C   C1        1.0  0.04405  0.62835  0.33477  1.0000
  C   C2        1.0  0.02037  0.61651  0.33467  1.0000
  C   C3        1.0  0.01286  0.59305  0.33441  1.0000
  N   N1        1.0  0.03221  0.59156  0.33468  1.0000
  C   C4        1.0  0.05157  0.61241  0.33498  1.0000
  C   C5        1.0  0.07493  0.61801  0.33506  1.0000
  C   C6        1.0  0.08243  0.60171  0.33480  1.0000
  N   N2        1.0  0.06946  0.57858  0.33457  1.0000
  C   C7        1.0  0.08243  0.56843  0.33444  1.0000
  C   C8        1.0  0.10522  0.58622  0.33439  1.0000
  C   C9        1.0  0.10522  0.60670  0.33504  1.0000
  C   C10       1.0  0.07493  0.54462  0.33416  1.0000
  C   C11       1.0  0.05157  0.52686  0.33427  1.0000
  N   N3        1.0  0.03222  0.52835  0.33462  1.0000
  C   C12       1.0  0.01287  0.50751  0.33500  1.0000
  C   C13       1.0  0.02039  0.49156  0.33475  1.0000
  C   C14       1.0  0.04406  0.50340  0.33453  1.0000
  C   C15       1.0  0.98951  0.50190  0.33518  1.0000
  N   N4        1.0  0.99497  0.54133  0.33475  1.0000
  C   C16       1.0  0.98200  0.55148  0.33463  1.0000
  C   C17       1.0  0.95921  0.53369  0.33448  1.0000
  C   C18       1.0  0.95922  0.51320  0.33511  1.0000
  C   C19       1.0  0.98950  0.57529  0.33439  1.0000
  C   C20       1.0  0.97226  0.58169  0.33414  1.0000
  C   C21       1.0  0.96504  0.58692  0.25314  1.0000
  C   C22       1.0  0.94707  0.59190  0.25241  1.0000
  C   C23       1.0  0.93565  0.59169  0.33223  1.0000
  C   C24       1.0  0.91664  0.59569  0.33098  1.0000
  C   C25       1.0  0.88069  0.58965  0.26277  1.0000
  C   C26       1.0  0.89981  0.58644  0.26262  1.0000
  C   C27       1.0  0.97229  0.47826  0.33575  1.0000
  C   C28       1.0  0.96129  0.46707  0.25568  1.0000
  C   C29       1.0  0.94341  0.44408  0.25704  1.0000
  C   C30       1.0  0.93598  0.43152  0.33815  1.0000
  C   C31       1.0  0.91718  0.40840  0.33962  1.0000
  C   C32       1.0  0.91429  0.39253  0.27171  1.0000
  C   C33       1.0  0.89528  0.37013  0.27126  1.0000
  C   C34       1.0  0.87855  0.36261  0.33946  1.0000
  C   C35       1.0  0.09216  0.53821  0.33379  1.0000
  C   C36       1.0  0.12846  0.52777  0.33187  1.0000
  C   C37       1.0  0.11712  0.52790  0.25197  1.0000
  C   C38       1.0  0.09929  0.53309  0.25272  1.0000
  C   C39       1.0  0.14726  0.52344  0.33068  1.0000
  C   C40       1.0  0.16411  0.53268  0.26263  1.0000
  C   C41       1.0  0.18299  0.52908  0.26271  1.0000
  C   C42       1.0  0.18589  0.51628  0.33147  1.0000
  C   C43       1.0  0.09217  0.64165  0.33553  1.0000
  C   C44       1.0  0.10321  0.65284  0.25550  1.0000
  C   C45       1.0  0.12123  0.67576  0.25686  1.0000
  C   C46       1.0  0.12877  0.68826  0.33793  1.0000
  C   C47       1.0  0.14778  0.71127  0.33944  1.0000
  C   C48       1.0  0.18688  0.75678  0.33920  1.0000
  C   C49       1.0  0.17016  0.74951  0.27074  1.0000
  C   C50       1.0  0.15092  0.72724  0.27123  1.0000
  H   H1        1.0  0.17175  0.76047  0.22005  1.0000
  H   H2        1.0  0.13912  0.72287  0.22096  1.0000
  H   H3        1.0  0.12932  0.68296  0.19786  1.0000
  H   H4        1.0  0.09858  0.64420  0.19598  1.0000
  H   H5        1.0  0.05394  0.64583  0.33472  1.0000
  H   H6        1.0  0.01047  0.62409  0.33478  1.0000
  H   H7        1.0  0.03222  0.57731  0.33469  1.0000
  H   H8        1.0  0.03222  0.54260  0.33464  1.0000
  H   H9        1.0  0.11966  0.62252  0.33546  1.0000
  H   H10       1.0  0.11966  0.58483  0.33414  1.0000
  H   H11       1.0  0.09172  0.53332  0.19356  1.0000
  H   H12       1.0  0.12168  0.52413  0.19193  1.0000
  H   H13       1.0  0.05396  0.49582  0.33457  1.0000
  H   H14       1.0  0.01050  0.47409  0.33473  1.0000
  H   H15       1.0  0.94478  0.49738  0.33542  1.0000
  H   H16       1.0  0.96587  0.47574  0.19609  1.0000
  H   H17       1.0  0.93536  0.43686  0.19798  1.0000
  H   H18       1.0  0.89386  0.35925  0.22083  1.0000
  H   H19       1.0  0.92611  0.39709  0.22166  1.0000
  H   H20       1.0  0.90084  0.57653  0.21319  1.0000
  H   H21       1.0  0.86865  0.58209  0.21339  1.0000
  H   H22       1.0  0.94242  0.59573  0.19241  1.0000
  H   H23       1.0  0.97263  0.58687  0.19400  1.0000
  H   H24       1.0  0.16325  0.54282  0.21341  1.0000
  H   H25       1.0  0.19506  0.53663  0.21356  1.0000
  C   C51       1.0  0.52223  0.59867  0.33723  1.0000
  C   C52       1.0  0.50444  0.60367  0.33712  1.0000
  C   C53       1.0  0.48396  0.58318  0.33775  1.0000
  C   C54       1.0  0.50371  0.46290  0.25590  1.0000
  C   C55       1.0  0.49873  0.43995  0.25513  1.0000
  C   C56       1.0  0.50097  0.37580  0.26533  1.0000
  C   C57       1.0  0.50420  0.39814  0.26526  1.0000
  C   C58       1.0  0.62355  0.57902  0.25815  1.0000
  C   C59       1.0  0.64654  0.58413  0.25932  1.0000
  C   C60       1.0  0.69809  0.60656  0.27365  1.0000
  C   C61       1.0  0.72050  0.60996  0.27294  1.0000
  C   C62       1.0  0.72805  0.60060  0.34085  1.0000
  C   C63       1.0  0.56275  0.67400  0.25474  1.0000
  C   C64       1.0  0.55757  0.65099  0.25550  1.0000
  C   C65       1.0  0.55796  0.71619  0.26541  1.0000
  C   C66       1.0  0.56155  0.73866  0.26548  1.0000
  C   C67       1.0  0.43784  0.53513  0.25798  1.0000
  C   C68       1.0  0.41492  0.53023  0.25915  1.0000
  C   C69       1.0  0.33387  0.51474  0.34060  1.0000
  C   C70       1.0  0.34117  0.50535  0.27242  1.0000
  C   C71       1.0  0.36343  0.50838  0.27319  1.0000
  H   H26       1.0  0.33024  0.49604  0.22171  1.0000
  H   H27       1.0  0.36784  0.50101  0.22309  1.0000
  H   H28       1.0  0.40774  0.53117  0.20006  1.0000
  H   H29       1.0  0.44650  0.53920  0.19850  1.0000
  H   H30       1.0  0.46814  0.58180  0.33815  1.0000
  H   H31       1.0  0.55731  0.64325  0.19633  1.0000
  H   H32       1.0  0.56652  0.68242  0.19470  1.0000
  H   H33       1.0  0.59484  0.64279  0.33738  1.0000
  H   H34       1.0  0.61487  0.57507  0.19861  1.0000
  H   H35       1.0  0.65375  0.58344  0.20015  1.0000
  H   H36       1.0  0.73135  0.61953  0.22250  1.0000
  H   H37       1.0  0.69351  0.61394  0.22382  1.0000
  H   H38       1.0  0.51411  0.40916  0.21583  1.0000
  H   H39       1.0  0.50856  0.37141  0.21600  1.0000
  H   H40       1.0  0.49491  0.43157  0.19512  1.0000
  H   H41       1.0  0.50378  0.47064  0.19677  1.0000
  H   H42       1.0  0.54783  0.70527  0.21618  1.0000
  H   H43       1.0  0.55401  0.74326  0.21630  1.0000
  C   C72       1.0  0.62764  0.12554  0.25710  1.0000
  C   C73       1.0  0.65059  0.14351  0.25587  1.0000
  C   C74       1.0  0.71474  0.20989  0.26474  1.0000
  C   C75       1.0  0.69241  0.19078  0.26512  1.0000
  C   C76       1.0  0.51162  0.12931  0.26061  1.0000
  C   C77       1.0  0.50649  0.14717  0.26182  1.0000
  C   C78       1.0  0.48407  0.17628  0.27628  1.0000
  C   C79       1.0  0.48068  0.19529  0.27558  1.0000
  C   C80       1.0  0.41677  0.97360  0.25541  1.0000
  C   C81       1.0  0.43978  0.99142  0.25666  1.0000
  C   C82       1.0  0.37456  0.92661  0.26509  1.0000
  C   C83       1.0  0.35208  0.90773  0.26465  1.0000
  C   C84       1.0  0.55553  0.98748  0.26039  1.0000
  C   C85       1.0  0.56046  0.96948  0.26159  1.0000
  C   C86       1.0  0.58531  0.92057  0.27500  1.0000
  C   C87       1.0  0.58228  0.93981  0.27573  1.0000
  H   H44       1.0  0.59463  0.91902  0.22431  1.0000
  H   H45       1.0  0.58966  0.95165  0.22562  1.0000
  H   H46       1.0  0.55949  0.96142  0.20253  1.0000
  H   H47       1.0  0.55146  0.99215  0.20089  1.0000
  H   H48       1.0  0.44759  0.99904  0.19768  1.0000
  H   H49       1.0  0.40843  0.96908  0.19519  1.0000
  H   H50       1.0  0.51558  0.12469  0.20105  1.0000
  H   H51       1.0  0.50721  0.15519  0.20270  1.0000
  H   H52       1.0  0.47111  0.19666  0.22514  1.0000
  H   H53       1.0  0.47670  0.16440  0.22640  1.0000
  H   H54       1.0  0.68132  0.18971  0.21592  1.0000
  H   H55       1.0  0.71908  0.22190  0.21526  1.0000
  H   H56       1.0  0.65889  0.14810  0.19568  1.0000
  H   H57       1.0  0.61983  0.11791  0.19813  1.0000
  H   H58       1.0  0.38556  0.92749  0.21617  1.0000
  H   H59       1.0  0.34756  0.89568  0.21545  1.0000
  C   C88       1.0  0.31170  0.51256  0.33824  1.0000
  C   C89       1.0  0.30380  0.51853  0.26059  1.0000
  C   C90       1.0  0.28252  0.51776  0.25978  1.0000
  C   C91       1.0  0.26808  0.51067  0.33595  1.0000
  C   C92       1.0  0.23271  0.50486  0.25894  1.0000
  C   C93       1.0  0.21261  0.50638  0.25753  1.0000
  H   H60       1.0  0.23688  0.49921  0.20247  1.0000
  H   H61       1.0  0.20300  0.50198  0.20019  1.0000
  H   H62       1.0  0.31394  0.52446  0.20489  1.0000
  H   H63       1.0  0.27809  0.52327  0.20331  1.0000
  C   C94       1.0  0.57211  0.87003  0.26322  1.0000
  C   C95       1.0  0.57290  0.84953  0.26239  1.0000
  C   C96       1.0  0.58579  0.81262  0.26160  1.0000
  C   C97       1.0  0.58426  0.79099  0.26021  1.0000
  H   H64       1.0  0.59143  0.82251  0.20512  1.0000
  H   H65       1.0  0.58866  0.78587  0.20288  1.0000
  H   H66       1.0  0.56619  0.87433  0.20750  1.0000
  H   H67       1.0  0.56738  0.83967  0.20596  1.0000
  C   C98       1.0  0.20687  0.77896  0.33718  1.0000
  C   C99       1.0  0.22071  0.78690  0.25980  1.0000
  C   C100      1.0  0.24122  0.80818  0.25937  1.0000
  C   C101      1.0  0.24858  0.82258  0.33567  1.0000
  C   C102      1.0  0.27001  0.84379  0.33618  1.0000
  C   C103      1.0  0.27813  0.85799  0.25927  1.0000
  C   C104      1.0  0.29977  0.87810  0.25832  1.0000
  C   C105      1.0  0.31404  0.88502  0.33486  1.0000
  H   H68       1.0  0.26833  0.85386  0.20257  1.0000
  H   H69       1.0  0.30497  0.88775  0.20109  1.0000
  H   H70       1.0  0.21649  0.77679  0.20404  1.0000
  H   H71       1.0  0.25115  0.81265  0.20312  1.0000
  C   C106      1.0  0.75039  0.60320  0.33860  1.0000
  C   C107      1.0  0.75848  0.59766  0.26081  1.0000
  C   C108      1.0  0.77996  0.59887  0.26002  1.0000
  C   C109      1.0  0.79441  0.60597  0.33640  1.0000
  C   C110      1.0  0.83001  0.61266  0.25961  1.0000
  C   C111      1.0  0.85035  0.61156  0.25818  1.0000
  H   H72       1.0  0.82568  0.61832  0.20329  1.0000
  H   H73       1.0  0.85996  0.61628  0.20097  1.0000
  H   H74       1.0  0.74836  0.59175  0.20493  1.0000
  H   H75       1.0  0.78455  0.59366  0.20343  1.0000
  C   C112      1.0  0.49300  0.24558  0.26345  1.0000
  C   C113      1.0  0.49180  0.26587  0.26267  1.0000
  C   C114      1.0  0.47800  0.30212  0.26222  1.0000
  C   C115      1.0  0.47910  0.32356  0.26078  1.0000
  H   H76       1.0  0.47235  0.29222  0.20590  1.0000
  H   H77       1.0  0.47438  0.32853  0.20357  1.0000
  H   H78       1.0  0.49891  0.24146  0.20758  1.0000
  H   H79       1.0  0.49700  0.27574  0.20607  1.0000
  C   C116      1.0  0.85880  0.34026  0.33755  1.0000
  C   C117      1.0  0.84496  0.33213  0.26003  1.0000
  C   C118      1.0  0.82469  0.31064  0.25962  1.0000
  C   C119      1.0  0.81756  0.29624  0.33613  1.0000
  C   C120      1.0  0.79634  0.27481  0.33667  1.0000
  C   C121      1.0  0.78842  0.26059  0.25994  1.0000
  C   C122      1.0  0.76698  0.24025  0.25898  1.0000
  C   C123      1.0  0.75272  0.23310  0.33534  1.0000
  H   H80       1.0  0.79824  0.26488  0.20340  1.0000
  H   H81       1.0  0.76191  0.23060  0.20188  1.0000
  H   H82       1.0  0.84901  0.34221  0.20408  1.0000
  H   H83       1.0  0.81474  0.30602  0.20325  1.0000
  C   C124      1.0  0.98200  0.51821  0.33492  1.0000
  C   C125      1.0  0.94326  0.58664  0.41320  1.0000
  C   C126      1.0  0.96127  0.58172  0.41430  1.0000
  C   C127      1.0  0.91357  0.60845  0.39925  1.0000
  C   C128      1.0  0.89433  0.61148  0.40004  1.0000
  C   C129      1.0  0.87753  0.60209  0.33187  1.0000
  C   C130      1.0  0.94740  0.44290  0.41789  1.0000
  C   C131      1.0  0.96522  0.46591  0.41692  1.0000
  C   C132      1.0  0.88152  0.37825  0.40817  1.0000
  C   C133      1.0  0.90040  0.40071  0.40796  1.0000
  C   C134      1.0  0.10309  0.53786  0.41400  1.0000
  C   C135      1.0  0.12095  0.53273  0.41289  1.0000
  C   C136      1.0  0.16907  0.50692  0.39936  1.0000
  C   C137      1.0  0.15007  0.51032  0.39861  1.0000
  C   C138      1.0  0.09932  0.65395  0.41663  1.0000
  C   C139      1.0  0.11729  0.67690  0.41760  1.0000
  C   C140      1.0  0.16455  0.71871  0.40804  1.0000
  C   C141      1.0  0.18365  0.74105  0.40825  1.0000
  H   H84       1.0  0.19566  0.74542  0.45775  1.0000
  H   H85       1.0  0.16347  0.70767  0.45745  1.0000
  H   H86       1.0  0.12188  0.68525  0.47767  1.0000
  H   H87       1.0  0.09168  0.64619  0.47567  1.0000
  H   H88       1.0  0.09844  0.54181  0.47355  1.0000
  H   H89       1.0  0.12895  0.53345  0.47206  1.0000
  H   H90       1.0  0.94478  0.53506  0.33417  1.0000
  H   H91       1.0  0.97285  0.47366  0.47598  1.0000
  H   H92       1.0  0.94289  0.43450  0.47800  1.0000
  H   H93       1.0  0.90131  0.41166  0.45714  1.0000
  H   H94       1.0  0.86950  0.37367  0.45752  1.0000
  H   H95       1.0  0.96595  0.57765  0.47376  1.0000
  H   H96       1.0  0.93520  0.58566  0.47228  1.0000
  H   H97       1.0  0.89279  0.62079  0.45076  1.0000
  H   H98       1.0  0.92542  0.61582  0.44934  1.0000
  H   H99       1.0  0.13818  0.50294  0.44844  1.0000
  H   H100      1.0  0.17043  0.49735  0.44981  1.0000
  C   C142      1.0  0.46230  0.50036  0.33757  1.0000
  C   C143      1.0  0.47414  0.48852  0.33749  1.0000
  C   C144      1.0  0.49760  0.50447  0.33724  1.0000
  N   N5        1.0  0.49909  0.52531  0.33750  1.0000
  C   C145      1.0  0.47825  0.52382  0.33779  1.0000
  C   C146      1.0  0.47264  0.54157  0.33781  1.0000
  C   C147      1.0  0.48895  0.56539  0.33754  1.0000
  N   N6        1.0  0.51207  0.57554  0.33737  1.0000
  C   C148      1.0  0.54604  0.61497  0.33698  1.0000
  C   C149      1.0  0.56380  0.60937  0.33711  1.0000
  N   N7        1.0  0.56230  0.58852  0.33746  1.0000
  C   C150      1.0  0.58314  0.59002  0.33781  1.0000
  C   C151      1.0  0.59910  0.61348  0.33754  1.0000
  C   C152      1.0  0.58726  0.62532  0.33734  1.0000
  C   C153      1.0  0.58875  0.57226  0.33794  1.0000
  C   C154      1.0  0.57245  0.54845  0.33770  1.0000
  N   N8        1.0  0.54932  0.53830  0.33757  1.0000
  C   C155      1.0  0.53917  0.51517  0.33742  1.0000
  C   C156      1.0  0.55696  0.51018  0.33723  1.0000
  C   C157      1.0  0.57745  0.53067  0.33783  1.0000
  C   C158      1.0  0.51536  0.49886  0.33720  1.0000
  C   C159      1.0  0.50896  0.47523  0.33692  1.0000
  C   C160      1.0  0.49895  0.42862  0.33493  1.0000
  C   C161      1.0  0.50402  0.44115  0.41590  1.0000
  C   C162      1.0  0.50891  0.46407  0.41706  1.0000
  C   C163      1.0  0.49495  0.40561  0.33365  1.0000
  C   C164      1.0  0.48219  0.38966  0.40190  1.0000
  C   C165      1.0  0.47917  0.36740  0.40266  1.0000
  C   C166      1.0  0.48855  0.36010  0.33446  1.0000
  C   C167      1.0  0.61239  0.57868  0.33835  1.0000
  C   C168      1.0  0.65913  0.58911  0.34035  1.0000
  C   C169      1.0  0.64778  0.58899  0.42022  1.0000
  C   C170      1.0  0.62476  0.58380  0.41944  1.0000
  C   C171      1.0  0.68226  0.59344  0.34158  1.0000
  C   C172      1.0  0.71244  0.58779  0.40959  1.0000
  C   C173      1.0  0.68997  0.58419  0.40963  1.0000
  C   C174      1.0  0.55245  0.63861  0.33658  1.0000
  C   C175      1.0  0.55282  0.64977  0.41680  1.0000
  C   C176      1.0  0.55794  0.67276  0.41567  1.0000
  C   C177      1.0  0.56289  0.68536  0.33464  1.0000
  C   C178      1.0  0.56721  0.70848  0.33344  1.0000
  C   C179      1.0  0.57436  0.75426  0.33420  1.0000
  C   C180      1.0  0.58373  0.74672  0.40209  1.0000
  C   C181      1.0  0.58034  0.72431  0.40134  1.0000
  C   C182      1.0  0.44900  0.53518  0.33812  1.0000
  C   C183      1.0  0.43668  0.52994  0.41914  1.0000
  C   C184      1.0  0.40239  0.52516  0.34013  1.0000
  C   C185      1.0  0.41373  0.52496  0.41993  1.0000
  C   C186      1.0  0.37938  0.52115  0.34142  1.0000
  C   C187      1.0  0.37191  0.53040  0.40978  1.0000
  C   C188      1.0  0.34957  0.52717  0.40969  1.0000
  H   H101      1.0  0.34517  0.53475  0.45904  1.0000
  H   H102      1.0  0.38293  0.54032  0.45920  1.0000
  H   H103      1.0  0.40536  0.52113  0.47995  1.0000
  H   H104      1.0  0.44443  0.53001  0.47827  1.0000
  H   H105      1.0  0.44482  0.49278  0.33750  1.0000
  H   H106      1.0  0.46656  0.47104  0.33758  1.0000
  H   H107      1.0  0.51334  0.53956  0.33748  1.0000
  H   H108      1.0  0.54805  0.57427  0.33746  1.0000
  H   H109      1.0  0.50583  0.61949  0.33690  1.0000
  H   H110      1.0  0.54885  0.64108  0.47633  1.0000
  H   H111      1.0  0.55722  0.67996  0.47483  1.0000
  H   H112      1.0  0.61657  0.62106  0.33750  1.0000
  H   H113      1.0  0.55558  0.49436  0.33688  1.0000
  H   H114      1.0  0.59327  0.53205  0.33810  1.0000
  H   H115      1.0  0.61703  0.58356  0.47859  1.0000
  H   H116      1.0  0.65620  0.59277  0.48027  1.0000
  H   H117      1.0  0.67905  0.57407  0.45888  1.0000
  H   H118      1.0  0.71704  0.58025  0.45878  1.0000
  H   H119      1.0  0.51301  0.47273  0.47652  1.0000
  H   H120      1.0  0.50498  0.43397  0.47498  1.0000
  H   H121      1.0  0.46987  0.35647  0.45339  1.0000
  H   H122      1.0  0.47482  0.39406  0.45201  1.0000
  H   H123      1.0  0.58773  0.71974  0.45116  1.0000
  H   H124      1.0  0.59332  0.75757  0.45250  1.0000
  C   C189      1.0  0.59029  0.04660  0.33964  1.0000
  C   C190      1.0  0.60213  0.07028  0.33939  1.0000
  C   C191      1.0  0.58618  0.07779  0.33923  1.0000
  N   N9        1.0  0.56534  0.05844  0.33970  1.0000
  C   C192      1.0  0.56684  0.03908  0.34001  1.0000
  C   C193      1.0  0.54908  0.01572  0.34015  1.0000
  C   C194      1.0  0.52527  0.00822  0.33984  1.0000
  N   N10       1.0  0.51511  0.02119  0.33956  1.0000
  C   C195      1.0  0.49199  0.00822  0.33929  1.0000
  C   C196      1.0  0.48699  0.98543  0.33918  1.0000
  C   C197      1.0  0.50748  0.98543  0.34001  1.0000
  C   C198      1.0  0.47568  0.01572  0.33887  1.0000
  C   C199      1.0  0.48129  0.03908  0.33910  1.0000
  N   N11       1.0  0.50213  0.05843  0.33969  1.0000
  C   C200      1.0  0.50063  0.07778  0.34007  1.0000
  C   C201      1.0  0.47717  0.07027  0.33966  1.0000
  C   C202      1.0  0.46533  0.04659  0.33927  1.0000
  C   C203      1.0  0.51838  0.10114  0.34031  1.0000
  C   C204      1.0  0.54220  0.10865  0.34001  1.0000
  N   N12       1.0  0.55235  0.09568  0.33976  1.0000
  C   C205      1.0  0.57548  0.10865  0.33947  1.0000
  C   C206      1.0  0.58047  0.13144  0.33931  1.0000
  C   C207      1.0  0.55998  0.13143  0.34009  1.0000
  C   C208      1.0  0.59179  0.10115  0.33908  1.0000
  C   C209      1.0  0.61542  0.11839  0.33836  1.0000
  C   C210      1.0  0.66203  0.15500  0.33543  1.0000
  C   C211      1.0  0.64960  0.14746  0.41666  1.0000
  C   C212      1.0  0.62668  0.12944  0.41827  1.0000
  C   C213      1.0  0.68503  0.17400  0.33366  1.0000
  C   C214      1.0  0.70107  0.17713  0.40158  1.0000
  C   C215      1.0  0.72334  0.19637  0.40186  1.0000
  C   C216      1.0  0.73054  0.21311  0.33349  1.0000
  C   C217      1.0  0.51197  0.11836  0.34078  1.0000
  C   C218      1.0  0.50152  0.15466  0.34289  1.0000
  C   C219      1.0  0.50165  0.14330  0.42273  1.0000
  C   C220      1.0  0.50684  0.12547  0.42190  1.0000
  C   C221      1.0  0.49719  0.17345  0.34418  1.0000
  C   C222      1.0  0.49005  0.21209  0.34351  1.0000
  C   C223      1.0  0.50283  0.20917  0.41228  1.0000
  C   C224      1.0  0.50643  0.19029  0.41229  1.0000
  C   C225      1.0  0.45204  0.99850  0.33801  1.0000
  C   C226      1.0  0.44077  0.98751  0.41798  1.0000
  C   C227      1.0  0.41778  0.96964  0.41635  1.0000
  C   C228      1.0  0.40530  0.96220  0.33506  1.0000
  C   C229      1.0  0.38218  0.94341  0.33333  1.0000
  C   C230      1.0  0.33639  0.90478  0.33307  1.0000
  C   C231      1.0  0.34384  0.92153  0.40116  1.0000
  C   C232      1.0  0.36625  0.94054  0.40091  1.0000
  C   C233      1.0  0.55548  0.99848  0.34050  1.0000
  C   C234      1.0  0.56072  0.99128  0.42154  1.0000
  C   C235      1.0  0.56550  0.96188  0.34260  1.0000
  C   C236      1.0  0.56570  0.97331  0.42237  1.0000
  C   C237      1.0  0.56951  0.94288  0.34394  1.0000
  C   C238      1.0  0.56026  0.92606  0.41232  1.0000
  C   C239      1.0  0.56347  0.90694  0.41222  1.0000
  C   C240      1.0  0.57592  0.90378  0.34319  1.0000
  H   H125      1.0  0.55591  0.89490  0.46162  1.0000
  H   H126      1.0  0.55034  0.92709  0.46172  1.0000
  H   H127      1.0  0.56953  0.96868  0.48241  1.0000
  H   H128      1.0  0.56065  0.99888  0.48065  1.0000
  H   H129      1.0  0.59788  0.03671  0.33953  1.0000
  H   H130      1.0  0.61961  0.08017  0.33933  1.0000
  H   H131      1.0  0.55109  0.05843  0.33979  1.0000
  H   H132      1.0  0.51638  0.05843  0.33981  1.0000
  H   H133      1.0  0.50886  0.97099  0.34039  1.0000
  H   H134      1.0  0.47117  0.97099  0.33886  1.0000
  H   H135      1.0  0.44938  0.99210  0.47770  1.0000
  H   H136      1.0  0.41050  0.96160  0.47535  1.0000
  H   H137      1.0  0.44786  0.03670  0.33914  1.0000
  H   H138      1.0  0.46959  0.08016  0.33957  1.0000
  H   H139      1.0  0.59629  0.14588  0.33886  1.0000
  H   H140      1.0  0.55859  0.14587  0.34038  1.0000
  H   H141      1.0  0.50708  0.11788  0.48102  1.0000
  H   H142      1.0  0.49787  0.14784  0.48281  1.0000
  H   H143      1.0  0.51658  0.18943  0.46145  1.0000
  H   H144      1.0  0.51040  0.22125  0.46140  1.0000
  H   H145      1.0  0.61810  0.12481  0.47792  1.0000
  H   H146      1.0  0.65686  0.15555  0.47559  1.0000
  H   H147      1.0  0.73434  0.19796  0.45234  1.0000
  H   H148      1.0  0.69674  0.16532  0.45179  1.0000
  H   H149      1.0  0.37076  0.95238  0.45086  1.0000
  H   H150      1.0  0.33292  0.92014  0.45136  1.0000
  C   C241      1.0  0.27589  0.50419  0.41284  1.0000
  C   C242      1.0  0.29733  0.50528  0.41428  1.0000
  H   H151      1.0  0.26599  0.49853  0.46916  1.0000
  H   H152      1.0  0.30231  0.50057  0.47150  1.0000
  C   C243      1.0  0.24687  0.51089  0.33601  1.0000
  C   C244      1.0  0.20563  0.51368  0.33375  1.0000
  C   C245      1.0  0.21938  0.51922  0.41153  1.0000
  C   C246      1.0  0.23963  0.51798  0.41240  1.0000
  H   H153      1.0  0.21524  0.52512  0.46743  1.0000
  H   H154      1.0  0.24951  0.52320  0.46897  1.0000
  C   C247      1.0  0.57809  0.88379  0.34085  1.0000
  C   C248      1.0  0.57999  0.84207  0.33857  1.0000
  C   C249      1.0  0.58647  0.85624  0.41547  1.0000
  C   C250      1.0  0.58537  0.87658  0.41690  1.0000
  H   H155      1.0  0.59212  0.85191  0.47179  1.0000
  H   H156      1.0  0.59009  0.88619  0.47411  1.0000
  C   C251      1.0  0.57976  0.82063  0.33866  1.0000
  C   C252      1.0  0.57697  0.77661  0.33646  1.0000
  C   C253      1.0  0.57144  0.78470  0.41425  1.0000
  C   C254      1.0  0.57267  0.80620  0.41506  1.0000
  H   H157      1.0  0.56554  0.77459  0.47014  1.0000
  H   H158      1.0  0.56746  0.81078  0.47165  1.0000
  C   C255      1.0  0.23430  0.81473  0.41227  1.0000
  C   C256      1.0  0.21396  0.79329  0.41333  1.0000
  H   H159      1.0  0.23855  0.82460  0.46865  1.0000
  H   H160      1.0  0.20428  0.78828  0.47034  1.0000
  C   C257      1.0  0.30585  0.87123  0.41248  1.0000
  C   C258      1.0  0.28435  0.85098  0.41288  1.0000
  H   H161      1.0  0.31588  0.87533  0.46861  1.0000
  H   H162      1.0  0.27969  0.84106  0.46937  1.0000
  C   C259      1.0  0.78640  0.61200  0.41347  1.0000
  C   C260      1.0  0.76476  0.61047  0.41486  1.0000
  H   H163      1.0  0.79628  0.61764  0.46995  1.0000
  H   H164      1.0  0.75965  0.61489  0.47218  1.0000
  C   C261      1.0  0.81584  0.60619  0.33649  1.0000
  C   C262      1.0  0.85755  0.60428  0.33422  1.0000
  C   C263      1.0  0.84379  0.59829  0.41184  1.0000
  C   C264      1.0  0.82330  0.59910  0.41268  1.0000
  H   H165      1.0  0.84809  0.59238  0.46756  1.0000
  H   H166      1.0  0.81343  0.59357  0.46911  1.0000
  C   C265      1.0  0.48746  0.23185  0.34125  1.0000
  C   C266      1.0  0.48470  0.27310  0.33904  1.0000
  C   C267      1.0  0.47866  0.25894  0.41610  1.0000
  C   C268      1.0  0.48018  0.23883  0.41750  1.0000
  H   H167      1.0  0.47302  0.26310  0.47258  1.0000
  H   H168      1.0  0.47577  0.22921  0.47483  1.0000
  C   C269      1.0  0.48448  0.29431  0.33912  1.0000
  C   C270      1.0  0.48639  0.33793  0.33680  1.0000
  C   C271      1.0  0.49238  0.33005  0.41443  1.0000
  C   C272      1.0  0.49156  0.30875  0.41530  1.0000
  H   H169      1.0  0.49828  0.34017  0.47016  1.0000
  H   H170      1.0  0.49709  0.30432  0.47173  1.0000
  C   C273      1.0  0.83183  0.30429  0.41290  1.0000
  C   C274      1.0  0.85193  0.32593  0.41391  1.0000
  H   H171      1.0  0.82774  0.29444  0.46945  1.0000
  H   H172      1.0  0.86163  0.33108  0.47105  1.0000
  C   C275      1.0  0.76072  0.24691  0.41280  1.0000
  C   C276      1.0  0.78202  0.26740  0.41318  1.0000
  H   H173      1.0  0.75068  0.24265  0.46875  1.0000
  H   H174      1.0  0.78653  0.27730  0.46952  1.0000
