data_image0
_chemical_formula_structural       C2O2H2C2O2H2C2O2H2C2O2H2C4OHOHC4OHOHC2O2H2C2O2H2C4OHOHC4OHOHC2O2H2C2O2H2C2O2H2C2O2H2C4OHOHC4OHOHC4OHOHC4OHOHCNCNCNCNCNCNCNCNCNCNCNCNCNCNCNCNCNCNCNCNCNCNCNCNCNCNCNCNCNCNCNCNCNCNCNCNC4OHOHC4OHOHC4OHOHC4OHOHC2O2H2C2O2H2C4OHOHC4OHOHC2O2H2C2O2H2C4OHOHC4OHOHC4OHOHC4OHOHC2O2H2C2O2H2C2O2H2C2O2H2C2O2H2C2O2H2C2O2H2C2O2H2C4OHOHC4OHOHC2O2H2C2O2H2C4OHOHC4OHOHC2O2H2C2O2H2C2O2H2C2O2H2C4OHOHC4OHOHC4OHOHC4OHOHCNCNCNCNCNCNCNCNCNCNCNCNCNCNCNCNCNCNCNCNCNCNCNCNCNCNCNCNCNCNCNCNCNCNCNCNC4OHOHC4OHOHC4OHOHC4OHOHC2O2H2C2O2H2C4OHOHC4OHOHC2O2H2C2O2H2C4OHOHC4OHOHC4OHOHC4OHOHC2O2H2C2O2H2C2O2H2C2O2H2
_chemical_formula_sum              "C288 O144 H144 N72"
_cell_length_a       42.5
_cell_length_b       55.0995
_cell_length_c       14.8883
_cell_angle_alpha    90
_cell_angle_beta     90
_cell_angle_gamma    90

_space_group_name_H-M_alt    "P 1"
_space_group_IT_number       1

loop_
  _space_group_symop_operation_xyz
  'x, y, z'

loop_
  _atom_site_type_symbol
  _atom_site_label
  _atom_site_symmetry_multiplicity
  _atom_site_fract_x
  _atom_site_fract_y
  _atom_site_fract_z
  _atom_site_occupancy
  C   C1        1.0  0.23615  0.18645  0.25835  1.0000
  C   C2        1.0  0.26917  0.18696  0.25711  1.0000
  O   O1        1.0  0.22123  0.20294  0.20481  1.0000
  O   O2        1.0  0.28275  0.20394  0.20266  1.0000
  H   H1        1.0  0.21369  0.19393  0.15201  1.0000
  H   H2        1.0  0.28996  0.19526  0.14876  1.0000
  C   C3        1.0  0.26978  0.85641  0.33555  1.0000
  C   C4        1.0  0.23627  0.85632  0.33349  1.0000
  O   O3        1.0  0.28522  0.87486  0.29361  1.0000
  O   O4        1.0  0.22149  0.87479  0.28979  1.0000
  H   H3        1.0  0.28759  0.88776  0.33871  1.0000
  H   H4        1.0  0.21839  0.88765  0.33469  1.0000
  C   C5        1.0  0.48684  0.65163  0.35071  1.0000
  C   C6        1.0  0.02036  0.65151  0.34849  1.0000
  O   O5        1.0  0.47131  0.63269  0.31214  1.0000
  O   O6        1.0  0.03487  0.63236  0.30820  1.0000
  H   H5        1.0  0.46844  0.62058  0.35991  1.0000
  H   H6        1.0  0.03841  0.62031  0.35582  1.0000
  C   C7        1.0  0.02103  0.35611  0.34246  1.0000
  C   C8        1.0  0.48750  0.35637  0.34023  1.0000
  O   O7        1.0  0.03677  0.37469  0.30230  1.0000
  O   O8        1.0  0.47313  0.37528  0.29802  1.0000
  H   H7        1.0  0.03943  0.38720  0.34872  1.0000
  H   H8        1.0  0.46958  0.38765  0.34447  1.0000
  C   C9        1.0  0.05929  0.10782  0.38742  1.0000
  C   C10       1.0  0.09057  0.10023  0.36903  1.0000
  C   C11       1.0  0.11592  0.11712  0.36746  1.0000
  C   C12       1.0  0.11117  0.14230  0.38493  1.0000
  O   O9        1.0  0.14437  0.10876  0.33891  1.0000
  H   H9        1.0  0.15546  0.10317  0.39302  1.0000
  O   O10       1.0  0.09634  0.07713  0.34095  1.0000
  H   H10       1.0  0.10216  0.06794  0.39503  1.0000
  C   C13       1.0  0.44959  0.89913  0.35138  1.0000
  C   C14       1.0  0.41788  0.90662  0.33927  1.0000
  C   C15       1.0  0.39263  0.88960  0.34043  1.0000
  C   C16       1.0  0.39790  0.86433  0.35417  1.0000
  O   O11       1.0  0.36338  0.89787  0.31894  1.0000
  H   H11       1.0  0.35409  0.90384  0.37522  1.0000
  O   O12       1.0  0.41136  0.93000  0.31626  1.0000
  H   H12       1.0  0.40615  0.93840  0.37256  1.0000
  C   C17       1.0  0.43002  0.15134  0.31716  1.0000
  C   C18       1.0  0.45483  0.13437  0.31701  1.0000
  O   O13       1.0  0.43830  0.17452  0.29451  1.0000
  O   O14       1.0  0.48344  0.14322  0.29067  1.0000
  H   H13       1.0  0.43497  0.17598  0.22935  1.0000
  H   H14       1.0  0.48593  0.13879  0.22709  1.0000
  C   C19       1.0  0.07927  0.85813  0.27056  1.0000
  C   C20       1.0  0.05450  0.87515  0.27011  1.0000
  O   O15       1.0  0.07173  0.83540  0.24087  1.0000
  O   O16       1.0  0.02638  0.86690  0.23768  1.0000
  H   H15       1.0  0.07842  0.83464  0.17769  1.0000
  H   H16       1.0  0.02474  0.87287  0.17561  1.0000
  C   C21       1.0  0.30670  0.60956  0.34177  1.0000
  C   C22       1.0  0.33862  0.60209  0.33431  1.0000
  C   C23       1.0  0.36389  0.61911  0.33747  1.0000
  C   C24       1.0  0.35855  0.64447  0.34811  1.0000
  O   O17       1.0  0.39352  0.61063  0.32220  1.0000
  H   H17       1.0  0.40147  0.60499  0.38058  1.0000
  O   O18       1.0  0.34559  0.57849  0.31572  1.0000
  H   H18       1.0  0.34973  0.57069  0.37390  1.0000
  C   C25       1.0  0.20070  0.39806  0.33930  1.0000
  C   C26       1.0  0.16878  0.40540  0.33027  1.0000
  C   C27       1.0  0.14364  0.38827  0.33289  1.0000
  C   C28       1.0  0.14911  0.36295  0.34469  1.0000
  O   O19       1.0  0.11406  0.39661  0.31598  1.0000
  H   H19       1.0  0.10578  0.40244  0.37372  1.0000
  O   O20       1.0  0.16178  0.42891  0.31049  1.0000
  H   H20       1.0  0.15725  0.43685  0.36818  1.0000
  C   C29       1.0  0.17581  0.64882  0.26427  1.0000
  C   C30       1.0  0.20065  0.63188  0.26163  1.0000
  O   O21       1.0  0.18246  0.67128  0.23036  1.0000
  O   O22       1.0  0.22806  0.63982  0.22363  1.0000
  H   H21       1.0  0.17390  0.67156  0.16900  1.0000
  H   H22       1.0  0.22860  0.63310  0.16246  1.0000
  C   C31       1.0  0.33147  0.35890  0.26178  1.0000
  C   C32       1.0  0.30654  0.37576  0.25970  1.0000
  O   O23       1.0  0.32471  0.33631  0.22927  1.0000
  O   O24       1.0  0.27896  0.36757  0.22352  1.0000
  H   H23       1.0  0.33264  0.33593  0.16723  1.0000
  H   H24       1.0  0.27798  0.37407  0.16207  1.0000
  C   C33       1.0  0.14606  0.24327  0.27352  1.0000
  C   C34       1.0  0.13767  0.26814  0.27569  1.0000
  O   O25       1.0  0.16059  0.23429  0.19887  1.0000
  O   O26       1.0  0.14572  0.28251  0.20474  1.0000
  H   H25       1.0  0.18169  0.24157  0.19675  1.0000
  H   H26       1.0  0.12788  0.28193  0.16281  1.0000
  C   C35       1.0  0.36592  0.76465  0.26851  1.0000
  C   C36       1.0  0.37428  0.73981  0.27060  1.0000
  O   O27       1.0  0.35506  0.77442  0.19034  1.0000
  O   O28       1.0  0.37039  0.72624  0.19486  1.0000
  H   H27       1.0  0.33220  0.77175  0.19008  1.0000
  H   H28       1.0  0.39043  0.72711  0.16209  1.0000
  C   C37       1.0  0.38527  0.27966  0.33397  1.0000
  C   C38       1.0  0.36854  0.26991  0.25990  1.0000
  C   C39       1.0  0.35988  0.24509  0.25789  1.0000
  C   C40       1.0  0.36891  0.22923  0.32824  1.0000
  O   O29       1.0  0.34517  0.23608  0.18360  1.0000
  H   H29       1.0  0.32374  0.24280  0.18364  1.0000
  O   O30       1.0  0.36081  0.28409  0.18818  1.0000
  H   H30       1.0  0.37897  0.28364  0.14738  1.0000
  C   C41       1.0  0.12185  0.72833  0.33480  1.0000
  C   C42       1.0  0.13121  0.73955  0.25341  1.0000
  C   C43       1.0  0.13845  0.76462  0.25094  1.0000
  C   C44       1.0  0.13573  0.77904  0.32928  1.0000
  O   O31       1.0  0.14695  0.77489  0.17128  1.0000
  H   H31       1.0  0.16992  0.77319  0.16707  1.0000
  O   O32       1.0  0.13340  0.72642  0.17608  1.0000
  H   H32       1.0  0.11251  0.72708  0.14789  1.0000
  C   C45       1.0  0.00414  0.97803  0.33708  1.0000
  C   C46       1.0  0.50403  0.99235  0.25800  1.0000
  C   C47       1.0  0.50313  0.01803  0.26312  1.0000
  C   C48       1.0  0.00373  0.02997  0.34739  1.0000
  O   O33       1.0  0.50320  0.03113  0.18552  1.0000
  H   H33       1.0  0.48101  0.03343  0.16899  1.0000
  O   O34       1.0  0.50336  0.98156  0.17568  1.0000
  H   H34       1.0  0.02542  0.97962  0.15728  1.0000
  C   C49       1.0  0.25384  0.47780  0.32301  1.0000
  C   C50       1.0  0.25242  0.49107  0.24158  1.0000
  C   C51       1.0  0.25151  0.51679  0.24214  1.0000
  C   C52       1.0  0.25347  0.52988  0.32390  1.0000
  O   O35       1.0  0.25035  0.52882  0.16226  1.0000
  H   H35       1.0  0.22793  0.53059  0.14750  1.0000
  O   O36       1.0  0.25067  0.47923  0.16139  1.0000
  H   H36       1.0  0.27246  0.47713  0.14078  1.0000
  C   C53       1.0  0.18682  0.17295  0.32738  1.0000
  N   N1        1.0  0.16561  0.15539  0.35084  1.0000
  C   C54       1.0  0.13469  0.16034  0.36934  1.0000
  N   N2        1.0  0.12619  0.18424  0.36570  1.0000
  C   C55       1.0  0.14604  0.20251  0.34358  1.0000
  N   N3        1.0  0.17596  0.19616  0.32482  1.0000
  C   C56       1.0  0.31982  0.83294  0.35612  1.0000
  N   N4        1.0  0.34186  0.85111  0.35240  1.0000
  C   C57       1.0  0.37361  0.84642  0.34978  1.0000
  N   N5        1.0  0.38204  0.82254  0.34593  1.0000
  C   C58       1.0  0.36129  0.80405  0.34414  1.0000
  N   N6        1.0  0.33066  0.80977  0.35110  1.0000
  C   C59       1.0  0.31998  0.17432  0.31863  1.0000
  N   N7        1.0  0.34243  0.15679  0.33037  1.0000
  C   C60       1.0  0.37388  0.16214  0.33621  1.0000
  N   N8        1.0  0.38143  0.18623  0.33608  1.0000
  C   C61       1.0  0.36024  0.20436  0.32716  1.0000
  N   N9        1.0  0.32992  0.19778  0.31722  1.0000
  C   C62       1.0  0.18607  0.83266  0.34759  1.0000
  N   N10       1.0  0.16468  0.85062  0.32966  1.0000
  C   C63       1.0  0.13349  0.84607  0.31253  1.0000
  N   N11       1.0  0.12472  0.82220  0.31284  1.0000
  C   C64       1.0  0.14488  0.80370  0.32822  1.0000
  N   N12       1.0  0.17500  0.80951  0.34565  1.0000
  C   C65       1.0  0.43683  0.67546  0.36769  1.0000
  N   N13       1.0  0.41473  0.65747  0.35748  1.0000
  C   C66       1.0  0.38311  0.66225  0.34861  1.0000
  N   N14       1.0  0.37501  0.68619  0.34460  1.0000
  C   C67       1.0  0.39568  0.70464  0.35157  1.0000
  N   N15       1.0  0.42601  0.69867  0.36427  1.0000
  C   C68       1.0  0.07084  0.33213  0.36269  1.0000
  N   N16       1.0  0.09304  0.35000  0.35232  1.0000
  C   C69       1.0  0.12465  0.34509  0.34511  1.0000
  N   N17       1.0  0.13268  0.32110  0.34307  1.0000
  C   C70       1.0  0.11194  0.30266  0.35061  1.0000
  N   N18       1.0  0.08155  0.30887  0.36129  1.0000
  C   C71       1.0  0.07094  0.67494  0.35858  1.0000
  N   N19       1.0  0.09180  0.65687  0.33714  1.0000
  C   C72       1.0  0.12274  0.66118  0.31585  1.0000
  N   N20       1.0  0.13187  0.68497  0.31549  1.0000
  C   C73       1.0  0.11251  0.70362  0.33617  1.0000
  N   N21       1.0  0.08258  0.69793  0.35707  1.0000
  C   C74       1.0  0.43675  0.33320  0.35314  1.0000
  N   N22       1.0  0.41589  0.35123  0.33136  1.0000
  C   C75       1.0  0.38486  0.34686  0.31153  1.0000
  N   N23       1.0  0.37568  0.32310  0.31331  1.0000
  C   C76       1.0  0.39497  0.30440  0.33426  1.0000
  N   N24       1.0  0.42502  0.31023  0.35337  1.0000
  C   C77       1.0  0.03250  0.09258  0.37468  1.0000
  N   N25       1.0  0.03157  0.06791  0.36652  1.0000
  C   C78       1.0  0.00389  0.05572  0.35273  1.0000
  N   N26       1.0  0.47650  0.06864  0.34416  1.0000
  C   C79       1.0  0.47620  0.09342  0.34708  1.0000
  N   N27       1.0  0.00448  0.10373  0.36333  1.0000
  C   C80       1.0  0.47602  0.91484  0.34032  1.0000
  N   N28       1.0  0.47662  0.93961  0.34179  1.0000
  C   C81       1.0  0.50415  0.95229  0.33205  1.0000
  N   N29       1.0  0.03171  0.93985  0.31885  1.0000
  C   C82       1.0  0.03231  0.91513  0.31189  1.0000
  N   N30       1.0  0.50415  0.90425  0.32421  1.0000
  C   C83       1.0  0.28047  0.59355  0.33125  1.0000
  N   N31       1.0  0.28029  0.56874  0.33252  1.0000
  C   C84       1.0  0.25298  0.55569  0.32376  1.0000
  N   N32       1.0  0.22514  0.56782  0.31166  1.0000
  C   C85       1.0  0.22400  0.59252  0.30531  1.0000
  N   N33       1.0  0.25200  0.60375  0.31630  1.0000
  C   C86       1.0  0.22686  0.41414  0.32898  1.0000
  N   N34       1.0  0.22699  0.43895  0.33027  1.0000
  C   C87       1.0  0.25432  0.45200  0.32192  1.0000
  N   N35       1.0  0.28217  0.43990  0.30975  1.0000
  C   C88       1.0  0.28331  0.41521  0.30301  1.0000
  N   N36       1.0  0.25533  0.40396  0.31401  1.0000
  C   C89       1.0  0.28721  0.17023  0.30829  1.0000
  C   C90       1.0  0.27078  0.15079  0.34989  1.0000
  C   C91       1.0  0.23729  0.15044  0.35197  1.0000
  C   C92       1.0  0.21946  0.16938  0.31169  1.0000
  O   O37       1.0  0.22293  0.13391  0.40624  1.0000
  H   H37       1.0  0.22012  0.11923  0.36961  1.0000
  O   O38       1.0  0.28665  0.13464  0.40228  1.0000
  H   H38       1.0  0.28912  0.11990  0.36576  1.0000
  C   C93       1.0  0.21883  0.83582  0.36353  1.0000
  C   C94       1.0  0.23605  0.81719  0.40783  1.0000
  C   C95       1.0  0.26910  0.81715  0.40891  1.0000
  C   C96       1.0  0.28679  0.83587  0.36663  1.0000
  O   O39       1.0  0.28300  0.79853  0.45490  1.0000
  H   H39       1.0  0.28981  0.80528  0.51286  1.0000
  O   O40       1.0  0.22172  0.79855  0.45258  1.0000
  H   H40       1.0  0.21419  0.80532  0.50978  1.0000
  C   C97       1.0  0.03812  0.67214  0.37568  1.0000
  C   C98       1.0  0.02101  0.69127  0.41742  1.0000
  C   C99       1.0  0.48792  0.69146  0.41892  1.0000
  C   C100      1.0  0.46989  0.67247  0.37941  1.0000
  O   O41       1.0  0.47437  0.71069  0.46215  1.0000
  H   H41       1.0  0.46822  0.70475  0.52193  1.0000
  O   O42       1.0  0.03544  0.71038  0.45888  1.0000
  H   H42       1.0  0.04224  0.70444  0.51806  1.0000
  C   C101      1.0  0.46960  0.33602  0.36946  1.0000
  C   C102      1.0  0.48657  0.31717  0.41318  1.0000
  C   C103      1.0  0.01963  0.31680  0.41470  1.0000
  C   C104      1.0  0.03779  0.33539  0.37329  1.0000
  O   O43       1.0  0.03298  0.29793  0.46036  1.0000
  H   H43       1.0  0.03901  0.30435  0.51957  1.0000
  O   O44       1.0  0.47203  0.29861  0.45747  1.0000
  H   H44       1.0  0.46553  0.30518  0.51604  1.0000
  C   C105      1.0  0.08060  0.14904  0.41497  1.0000
  C   C106      1.0  0.05550  0.13231  0.41634  1.0000
  O   O45       1.0  0.07363  0.17197  0.44366  1.0000
  O   O46       1.0  0.02758  0.14100  0.44861  1.0000
  H   H45       1.0  0.08051  0.17286  0.50665  1.0000
  H   H46       1.0  0.02578  0.13510  0.51074  1.0000
  C   C107      1.0  0.42937  0.85743  0.37531  1.0000
  C   C108      1.0  0.45429  0.87428  0.37442  1.0000
  O   O47       1.0  0.43740  0.83441  0.40080  1.0000
  O   O48       1.0  0.48286  0.86544  0.40119  1.0000
  H   H47       1.0  0.43274  0.83323  0.46537  1.0000
  H   H48       1.0  0.48548  0.87026  0.46434  1.0000
  C   C109      1.0  0.44995  0.10938  0.33772  1.0000
  C   C110      1.0  0.41820  0.10198  0.34960  1.0000
  C   C111      1.0  0.39306  0.11908  0.34896  1.0000
  C   C112      1.0  0.39841  0.14439  0.33604  1.0000
  O   O49       1.0  0.36373  0.11074  0.36923  1.0000
  H   H49       1.0  0.35481  0.10458  0.31272  1.0000
  O   O50       1.0  0.41150  0.07852  0.37107  1.0000
  H   H50       1.0  0.40631  0.07039  0.31420  1.0000
  C   C113      1.0  0.05881  0.89957  0.29938  1.0000
  C   C114      1.0  0.09026  0.90670  0.31795  1.0000
  C   C115      1.0  0.11527  0.88948  0.31891  1.0000
  C   C116      1.0  0.11007  0.86441  0.30021  1.0000
  O   O51       1.0  0.14394  0.89741  0.34739  1.0000
  H   H51       1.0  0.15489  0.90333  0.29354  1.0000
  O   O52       1.0  0.09649  0.92968  0.34657  1.0000
  H   H52       1.0  0.10254  0.93889  0.29275  1.0000
  C   C117      1.0  0.32667  0.65153  0.36272  1.0000
  C   C118      1.0  0.30174  0.63466  0.36039  1.0000
  O   O53       1.0  0.31811  0.67479  0.38347  1.0000
  O   O54       1.0  0.27281  0.64389  0.38174  1.0000
  H   H53       1.0  0.32073  0.67649  0.44881  1.0000
  H   H54       1.0  0.26930  0.64015  0.44555  1.0000
  C   C119      1.0  0.18094  0.35605  0.36086  1.0000
  C   C120      1.0  0.20575  0.37304  0.35911  1.0000
  O   O55       1.0  0.18953  0.33287  0.38257  1.0000
  O   O56       1.0  0.23463  0.36405  0.38227  1.0000
  H   H55       1.0  0.18669  0.33131  0.44788  1.0000
  H   H56       1.0  0.23777  0.36809  0.44597  1.0000
  C   C121      1.0  0.19709  0.60773  0.29438  1.0000
  C   C122      1.0  0.16612  0.60063  0.31871  1.0000
  C   C123      1.0  0.14106  0.61779  0.32207  1.0000
  C   C124      1.0  0.14576  0.64273  0.30009  1.0000
  O   O57       1.0  0.11321  0.61014  0.35733  1.0000
  H   H57       1.0  0.10101  0.60362  0.30671  1.0000
  O   O58       1.0  0.16078  0.57795  0.35171  1.0000
  H   H58       1.0  0.15351  0.56817  0.30054  1.0000
  C   C125      1.0  0.31020  0.40002  0.29132  1.0000
  C   C126      1.0  0.34132  0.40729  0.31329  1.0000
  C   C127      1.0  0.36649  0.39022  0.31598  1.0000
  C   C128      1.0  0.36172  0.36520  0.29571  1.0000
  O   O59       1.0  0.39463  0.39811  0.34858  1.0000
  H   H59       1.0  0.40642  0.40423  0.29650  1.0000
  O   O60       1.0  0.34685  0.43014  0.34445  1.0000
  H   H60       1.0  0.35356  0.43970  0.29211  1.0000
  C   C129      1.0  0.12101  0.27788  0.34975  1.0000
  C   C130      1.0  0.11206  0.26208  0.42040  1.0000
  C   C131      1.0  0.12052  0.23723  0.41831  1.0000
  C   C132      1.0  0.13702  0.22739  0.34402  1.0000
  O   O61       1.0  0.11284  0.22312  0.49028  1.0000
  H   H61       1.0  0.13115  0.22341  0.53054  1.0000
  O   O62       1.0  0.09776  0.27126  0.49515  1.0000
  H   H62       1.0  0.07697  0.26353  0.49955  1.0000
  C   C133      1.0  0.38641  0.72928  0.35017  1.0000
  C   C134      1.0  0.39086  0.74411  0.42688  1.0000
  C   C135      1.0  0.38235  0.76892  0.42487  1.0000
  C   C136      1.0  0.37062  0.77949  0.34498  1.0000
  O   O63       1.0  0.38580  0.78245  0.50089  1.0000
  H   H63       1.0  0.36561  0.78151  0.53285  1.0000
  O   O64       1.0  0.40103  0.73411  0.50553  1.0000
  H   H64       1.0  0.42234  0.74041  0.51615  1.0000
  C   C137      1.0  0.38533  0.23896  0.40271  1.0000
  C   C138      1.0  0.39385  0.26380  0.40500  1.0000
  O   O65       1.0  0.39301  0.22461  0.47407  1.0000
  O   O66       1.0  0.40788  0.27289  0.48034  1.0000
  H   H65       1.0  0.37494  0.22517  0.51518  1.0000
  H   H66       1.0  0.42820  0.26458  0.48721  1.0000
  C   C139      1.0  0.12717  0.76775  0.41109  1.0000
  C   C140      1.0  0.11925  0.74280  0.41322  1.0000
  O   O67       1.0  0.12550  0.78092  0.48846  1.0000
  O   O68       1.0  0.11146  0.73235  0.49325  1.0000
  H   H67       1.0  0.14622  0.77946  0.51726  1.0000
  H   H68       1.0  0.09029  0.73818  0.50860  1.0000
  C   C141      1.0  0.00411  0.01566  0.42646  1.0000
  C   C142      1.0  0.00449  0.98998  0.42136  1.0000
  O   O69       1.0  0.50484  0.02641  0.50886  1.0000
  O   O70       1.0  0.00446  0.97691  0.49905  1.0000
  H   H69       1.0  0.48280  0.02908  0.52614  1.0000
  H   H70       1.0  0.02665  0.97395  0.51399  1.0000
  C   C143      1.0  0.25517  0.51661  0.40533  1.0000
  C   C144      1.0  0.25561  0.49087  0.40485  1.0000
  O   O71       1.0  0.25700  0.52847  0.48546  1.0000
  O   O72       1.0  0.25682  0.47881  0.48465  1.0000
  H   H71       1.0  0.23520  0.53108  0.50524  1.0000
  H   H72       1.0  0.27925  0.47624  0.49765  1.0000
  C   C145      1.0  0.73615  0.18645  0.25835  1.0000
  C   C146      1.0  0.76917  0.18696  0.25711  1.0000
  O   O73       1.0  0.72123  0.20294  0.20481  1.0000
  O   O74       1.0  0.78275  0.20394  0.20266  1.0000
  H   H73       1.0  0.71369  0.19393  0.15201  1.0000
  H   H74       1.0  0.78996  0.19526  0.14876  1.0000
  C   C147      1.0  0.76978  0.85641  0.33555  1.0000
  C   C148      1.0  0.73627  0.85632  0.33349  1.0000
  O   O75       1.0  0.78522  0.87486  0.29361  1.0000
  O   O76       1.0  0.72149  0.87479  0.28979  1.0000
  H   H75       1.0  0.78759  0.88776  0.33871  1.0000
  H   H76       1.0  0.71839  0.88765  0.33469  1.0000
  C   C149      1.0  0.98683  0.65163  0.35071  1.0000
  C   C150      1.0  0.52036  0.65151  0.34849  1.0000
  O   O77       1.0  0.97131  0.63269  0.31214  1.0000
  O   O78       1.0  0.53487  0.63236  0.30820  1.0000
  H   H77       1.0  0.96844  0.62058  0.35991  1.0000
  H   H78       1.0  0.53841  0.62031  0.35582  1.0000
  C   C151      1.0  0.52103  0.35611  0.34246  1.0000
  C   C152      1.0  0.98750  0.35637  0.34023  1.0000
  O   O79       1.0  0.53677  0.37469  0.30230  1.0000
  O   O80       1.0  0.97313  0.37528  0.29802  1.0000
  H   H79       1.0  0.53943  0.38720  0.34872  1.0000
  H   H80       1.0  0.96958  0.38765  0.34447  1.0000
  C   C153      1.0  0.55929  0.10782  0.38742  1.0000
  C   C154      1.0  0.59057  0.10023  0.36903  1.0000
  C   C155      1.0  0.61592  0.11712  0.36746  1.0000
  C   C156      1.0  0.61117  0.14230  0.38493  1.0000
  O   O81       1.0  0.64437  0.10876  0.33891  1.0000
  H   H81       1.0  0.65546  0.10317  0.39302  1.0000
  O   O82       1.0  0.59634  0.07713  0.34095  1.0000
  H   H82       1.0  0.60216  0.06794  0.39503  1.0000
  C   C157      1.0  0.94959  0.89913  0.35138  1.0000
  C   C158      1.0  0.91788  0.90662  0.33927  1.0000
  C   C159      1.0  0.89263  0.88960  0.34043  1.0000
  C   C160      1.0  0.89790  0.86433  0.35417  1.0000
  O   O83       1.0  0.86338  0.89787  0.31894  1.0000
  H   H83       1.0  0.85410  0.90384  0.37522  1.0000
  O   O84       1.0  0.91136  0.93000  0.31626  1.0000
  H   H84       1.0  0.90615  0.93840  0.37256  1.0000
  C   C161      1.0  0.93002  0.15134  0.31716  1.0000
  C   C162      1.0  0.95483  0.13437  0.31701  1.0000
  O   O85       1.0  0.93830  0.17452  0.29451  1.0000
  O   O86       1.0  0.98344  0.14322  0.29067  1.0000
  H   H85       1.0  0.93497  0.17598  0.22935  1.0000
  H   H86       1.0  0.98593  0.13879  0.22709  1.0000
  C   C163      1.0  0.57927  0.85813  0.27056  1.0000
  C   C164      1.0  0.55450  0.87515  0.27011  1.0000
  O   O87       1.0  0.57173  0.83540  0.24087  1.0000
  O   O88       1.0  0.52638  0.86690  0.23768  1.0000
  H   H87       1.0  0.57842  0.83464  0.17769  1.0000
  H   H88       1.0  0.52474  0.87287  0.17561  1.0000
  C   C165      1.0  0.80670  0.60956  0.34177  1.0000
  C   C166      1.0  0.83862  0.60209  0.33431  1.0000
  C   C167      1.0  0.86389  0.61911  0.33747  1.0000
  C   C168      1.0  0.85855  0.64447  0.34811  1.0000
  O   O89       1.0  0.89352  0.61063  0.32220  1.0000
  H   H89       1.0  0.90147  0.60499  0.38058  1.0000
  O   O90       1.0  0.84559  0.57849  0.31572  1.0000
  H   H90       1.0  0.84973  0.57069  0.37390  1.0000
  C   C169      1.0  0.70069  0.39806  0.33930  1.0000
  C   C170      1.0  0.66878  0.40540  0.33027  1.0000
  C   C171      1.0  0.64364  0.38827  0.33289  1.0000
  C   C172      1.0  0.64911  0.36295  0.34469  1.0000
  O   O91       1.0  0.61406  0.39661  0.31598  1.0000
  H   H91       1.0  0.60578  0.40244  0.37372  1.0000
  O   O92       1.0  0.66178  0.42891  0.31049  1.0000
  H   H92       1.0  0.65725  0.43685  0.36818  1.0000
  C   C173      1.0  0.67581  0.64882  0.26427  1.0000
  C   C174      1.0  0.70065  0.63188  0.26163  1.0000
  O   O93       1.0  0.68246  0.67128  0.23036  1.0000
  O   O94       1.0  0.72806  0.63982  0.22363  1.0000
  H   H93       1.0  0.67390  0.67156  0.16900  1.0000
  H   H94       1.0  0.72860  0.63310  0.16246  1.0000
  C   C175      1.0  0.83147  0.35890  0.26178  1.0000
  C   C176      1.0  0.80654  0.37576  0.25970  1.0000
  O   O95       1.0  0.82471  0.33631  0.22927  1.0000
  O   O96       1.0  0.77896  0.36757  0.22352  1.0000
  H   H95       1.0  0.83264  0.33593  0.16723  1.0000
  H   H96       1.0  0.77798  0.37407  0.16207  1.0000
  C   C177      1.0  0.64606  0.24327  0.27352  1.0000
  C   C178      1.0  0.63767  0.26814  0.27569  1.0000
  O   O97       1.0  0.66058  0.23429  0.19887  1.0000
  O   O98       1.0  0.64572  0.28251  0.20474  1.0000
  H   H97       1.0  0.68168  0.24157  0.19675  1.0000
  H   H98       1.0  0.62788  0.28193  0.16281  1.0000
  C   C179      1.0  0.86592  0.76465  0.26851  1.0000
  C   C180      1.0  0.87428  0.73981  0.27060  1.0000
  O   O99       1.0  0.85506  0.77442  0.19034  1.0000
  O   O100      1.0  0.87039  0.72624  0.19486  1.0000
  H   H99       1.0  0.83219  0.77175  0.19008  1.0000
  H   H100      1.0  0.89043  0.72711  0.16209  1.0000
  C   C181      1.0  0.88527  0.27966  0.33397  1.0000
  C   C182      1.0  0.86854  0.26991  0.25990  1.0000
  C   C183      1.0  0.85988  0.24509  0.25789  1.0000
  C   C184      1.0  0.86891  0.22923  0.32824  1.0000
  O   O101      1.0  0.84517  0.23608  0.18360  1.0000
  H   H101      1.0  0.82374  0.24280  0.18364  1.0000
  O   O102      1.0  0.86081  0.28409  0.18818  1.0000
  H   H102      1.0  0.87897  0.28364  0.14738  1.0000
  C   C185      1.0  0.62185  0.72833  0.33480  1.0000
  C   C186      1.0  0.63121  0.73955  0.25341  1.0000
  C   C187      1.0  0.63845  0.76462  0.25094  1.0000
  C   C188      1.0  0.63573  0.77904  0.32928  1.0000
  O   O103      1.0  0.64695  0.77489  0.17128  1.0000
  H   H103      1.0  0.66992  0.77319  0.16707  1.0000
  O   O104      1.0  0.63339  0.72642  0.17608  1.0000
  H   H104      1.0  0.61251  0.72708  0.14789  1.0000
  C   C189      1.0  0.50414  0.97803  0.33708  1.0000
  C   C190      1.0  0.00403  0.99235  0.25800  1.0000
  C   C191      1.0  0.00313  0.01803  0.26312  1.0000
  C   C192      1.0  0.50372  0.02997  0.34739  1.0000
  O   O105      1.0  0.00320  0.03113  0.18552  1.0000
  H   H105      1.0  0.98101  0.03343  0.16899  1.0000
  O   O106      1.0  0.00336  0.98156  0.17568  1.0000
  H   H106      1.0  0.52542  0.97962  0.15728  1.0000
  C   C193      1.0  0.75384  0.47780  0.32301  1.0000
  C   C194      1.0  0.75242  0.49107  0.24158  1.0000
  C   C195      1.0  0.75152  0.51679  0.24214  1.0000
  C   C196      1.0  0.75347  0.52988  0.32390  1.0000
  O   O107      1.0  0.75035  0.52882  0.16226  1.0000
  H   H107      1.0  0.72793  0.53059  0.14750  1.0000
  O   O108      1.0  0.75067  0.47923  0.16139  1.0000
  H   H108      1.0  0.77246  0.47713  0.14078  1.0000
  C   C197      1.0  0.68682  0.17295  0.32738  1.0000
  N   N37       1.0  0.66561  0.15539  0.35084  1.0000
  C   C198      1.0  0.63469  0.16034  0.36934  1.0000
  N   N38       1.0  0.62619  0.18424  0.36570  1.0000
  C   C199      1.0  0.64604  0.20251  0.34358  1.0000
  N   N39       1.0  0.67596  0.19616  0.32482  1.0000
  C   C200      1.0  0.81982  0.83294  0.35612  1.0000
  N   N40       1.0  0.84186  0.85111  0.35240  1.0000
  C   C201      1.0  0.87361  0.84642  0.34978  1.0000
  N   N41       1.0  0.88204  0.82254  0.34593  1.0000
  C   C202      1.0  0.86129  0.80405  0.34414  1.0000
  N   N42       1.0  0.83066  0.80977  0.35110  1.0000
  C   C203      1.0  0.81998  0.17432  0.31863  1.0000
  N   N43       1.0  0.84243  0.15679  0.33037  1.0000
  C   C204      1.0  0.87388  0.16214  0.33621  1.0000
  N   N44       1.0  0.88143  0.18623  0.33608  1.0000
  C   C205      1.0  0.86024  0.20436  0.32716  1.0000
  N   N45       1.0  0.82992  0.19778  0.31722  1.0000
  C   C206      1.0  0.68607  0.83266  0.34759  1.0000
  N   N46       1.0  0.66468  0.85062  0.32966  1.0000
  C   C207      1.0  0.63349  0.84607  0.31253  1.0000
  N   N47       1.0  0.62472  0.82220  0.31284  1.0000
  C   C208      1.0  0.64488  0.80370  0.32822  1.0000
  N   N48       1.0  0.67500  0.80951  0.34565  1.0000
  C   C209      1.0  0.93683  0.67546  0.36769  1.0000
  N   N49       1.0  0.91473  0.65747  0.35748  1.0000
  C   C210      1.0  0.88311  0.66225  0.34861  1.0000
  N   N50       1.0  0.87501  0.68619  0.34460  1.0000
  C   C211      1.0  0.89568  0.70464  0.35157  1.0000
  N   N51       1.0  0.92601  0.69867  0.36427  1.0000
  C   C212      1.0  0.57084  0.33213  0.36269  1.0000
  N   N52       1.0  0.59304  0.35000  0.35232  1.0000
  C   C213      1.0  0.62465  0.34509  0.34511  1.0000
  N   N53       1.0  0.63268  0.32110  0.34307  1.0000
  C   C214      1.0  0.61194  0.30266  0.35062  1.0000
  N   N54       1.0  0.58155  0.30887  0.36129  1.0000
  C   C215      1.0  0.57094  0.67494  0.35858  1.0000
  N   N55       1.0  0.59180  0.65687  0.33714  1.0000
  C   C216      1.0  0.62274  0.66118  0.31585  1.0000
  N   N56       1.0  0.63187  0.68497  0.31549  1.0000
  C   C217      1.0  0.61251  0.70362  0.33617  1.0000
  N   N57       1.0  0.58258  0.69793  0.35707  1.0000
  C   C218      1.0  0.93675  0.33320  0.35314  1.0000
  N   N58       1.0  0.91589  0.35123  0.33136  1.0000
  C   C219      1.0  0.88486  0.34686  0.31153  1.0000
  N   N59       1.0  0.87568  0.32310  0.31331  1.0000
  C   C220      1.0  0.89496  0.30440  0.33426  1.0000
  N   N60       1.0  0.92502  0.31023  0.35337  1.0000
  C   C221      1.0  0.53250  0.09258  0.37468  1.0000
  N   N61       1.0  0.53158  0.06791  0.36652  1.0000
  C   C222      1.0  0.50389  0.05572  0.35273  1.0000
  N   N62       1.0  0.97650  0.06864  0.34416  1.0000
  C   C223      1.0  0.97620  0.09342  0.34708  1.0000
  N   N63       1.0  0.50448  0.10373  0.36333  1.0000
  C   C224      1.0  0.97602  0.91484  0.34032  1.0000
  N   N64       1.0  0.97662  0.93961  0.34179  1.0000
  C   C225      1.0  0.00415  0.95229  0.33205  1.0000
  N   N65       1.0  0.53171  0.93985  0.31885  1.0000
  C   C226      1.0  0.53231  0.91513  0.31189  1.0000
  N   N66       1.0  0.00415  0.90425  0.32421  1.0000
  C   C227      1.0  0.78047  0.59355  0.33125  1.0000
  N   N67       1.0  0.78029  0.56874  0.33252  1.0000
  C   C228      1.0  0.75298  0.55569  0.32376  1.0000
  N   N68       1.0  0.72514  0.56782  0.31166  1.0000
  C   C229      1.0  0.72400  0.59252  0.30531  1.0000
  N   N69       1.0  0.75200  0.60375  0.31630  1.0000
  C   C230      1.0  0.72686  0.41414  0.32898  1.0000
  N   N70       1.0  0.72699  0.43895  0.33027  1.0000
  C   C231      1.0  0.75432  0.45200  0.32192  1.0000
  N   N71       1.0  0.78217  0.43990  0.30975  1.0000
  C   C232      1.0  0.78331  0.41521  0.30301  1.0000
  N   N72       1.0  0.75532  0.40396  0.31401  1.0000
  C   C233      1.0  0.78721  0.17023  0.30829  1.0000
  C   C234      1.0  0.77078  0.15079  0.34989  1.0000
  C   C235      1.0  0.73729  0.15044  0.35197  1.0000
  C   C236      1.0  0.71946  0.16938  0.31169  1.0000
  O   O109      1.0  0.72293  0.13391  0.40624  1.0000
  H   H109      1.0  0.72012  0.11923  0.36961  1.0000
  O   O110      1.0  0.78664  0.13464  0.40228  1.0000
  H   H110      1.0  0.78912  0.11990  0.36576  1.0000
  C   C237      1.0  0.71883  0.83582  0.36353  1.0000
  C   C238      1.0  0.73605  0.81719  0.40783  1.0000
  C   C239      1.0  0.76910  0.81715  0.40891  1.0000
  C   C240      1.0  0.78679  0.83587  0.36663  1.0000
  O   O111      1.0  0.78300  0.79853  0.45490  1.0000
  H   H111      1.0  0.78981  0.80528  0.51286  1.0000
  O   O112      1.0  0.72172  0.79855  0.45258  1.0000
  H   H112      1.0  0.71419  0.80532  0.50978  1.0000
  C   C241      1.0  0.53812  0.67214  0.37568  1.0000
  C   C242      1.0  0.52101  0.69127  0.41742  1.0000
  C   C243      1.0  0.98792  0.69146  0.41892  1.0000
  C   C244      1.0  0.96989  0.67247  0.37941  1.0000
  O   O113      1.0  0.97438  0.71069  0.46215  1.0000
  H   H113      1.0  0.96822  0.70475  0.52193  1.0000
  O   O114      1.0  0.53544  0.71038  0.45888  1.0000
  H   H114      1.0  0.54224  0.70444  0.51806  1.0000
  C   C245      1.0  0.96960  0.33602  0.36946  1.0000
  C   C246      1.0  0.98657  0.31717  0.41318  1.0000
  C   C247      1.0  0.51963  0.31680  0.41470  1.0000
  C   C248      1.0  0.53779  0.33539  0.37329  1.0000
  O   O115      1.0  0.53298  0.29793  0.46036  1.0000
  H   H115      1.0  0.53901  0.30435  0.51957  1.0000
  O   O116      1.0  0.97203  0.29861  0.45747  1.0000
  H   H116      1.0  0.96552  0.30518  0.51604  1.0000
  C   C249      1.0  0.58060  0.14904  0.41497  1.0000
  C   C250      1.0  0.55550  0.13231  0.41634  1.0000
  O   O117      1.0  0.57363  0.17197  0.44366  1.0000
  O   O118      1.0  0.52758  0.14100  0.44861  1.0000
  H   H117      1.0  0.58051  0.17286  0.50665  1.0000
  H   H118      1.0  0.52578  0.13510  0.51074  1.0000
  C   C251      1.0  0.92936  0.85743  0.37531  1.0000
  C   C252      1.0  0.95429  0.87428  0.37442  1.0000
  O   O119      1.0  0.93740  0.83441  0.40080  1.0000
  O   O120      1.0  0.98286  0.86544  0.40119  1.0000
  H   H119      1.0  0.93274  0.83323  0.46537  1.0000
  H   H120      1.0  0.98548  0.87026  0.46434  1.0000
  C   C253      1.0  0.94995  0.10938  0.33772  1.0000
  C   C254      1.0  0.91821  0.10198  0.34960  1.0000
  C   C255      1.0  0.89306  0.11908  0.34896  1.0000
  C   C256      1.0  0.89841  0.14439  0.33604  1.0000
  O   O121      1.0  0.86373  0.11074  0.36923  1.0000
  H   H121      1.0  0.85481  0.10458  0.31272  1.0000
  O   O122      1.0  0.91150  0.07852  0.37107  1.0000
  H   H122      1.0  0.90631  0.07039  0.31420  1.0000
  C   C257      1.0  0.55881  0.89957  0.29938  1.0000
  C   C258      1.0  0.59026  0.90670  0.31795  1.0000
  C   C259      1.0  0.61527  0.88948  0.31891  1.0000
  C   C260      1.0  0.61007  0.86441  0.30021  1.0000
  O   O123      1.0  0.64394  0.89741  0.34739  1.0000
  H   H123      1.0  0.65489  0.90333  0.29354  1.0000
  O   O124      1.0  0.59649  0.92968  0.34657  1.0000
  H   H124      1.0  0.60254  0.93889  0.29275  1.0000
  C   C261      1.0  0.82667  0.65153  0.36272  1.0000
  C   C262      1.0  0.80174  0.63466  0.36039  1.0000
  O   O125      1.0  0.81811  0.67479  0.38347  1.0000
  O   O126      1.0  0.77281  0.64389  0.38174  1.0000
  H   H125      1.0  0.82073  0.67649  0.44881  1.0000
  H   H126      1.0  0.76930  0.64015  0.44555  1.0000
  C   C263      1.0  0.68094  0.35605  0.36086  1.0000
  C   C264      1.0  0.70575  0.37304  0.35911  1.0000
  O   O127      1.0  0.68953  0.33287  0.38257  1.0000
  O   O128      1.0  0.73463  0.36405  0.38227  1.0000
  H   H127      1.0  0.68669  0.33131  0.44788  1.0000
  H   H128      1.0  0.73777  0.36809  0.44597  1.0000
  C   C265      1.0  0.69710  0.60773  0.29438  1.0000
  C   C266      1.0  0.66612  0.60063  0.31871  1.0000
  C   C267      1.0  0.64106  0.61779  0.32207  1.0000
  C   C268      1.0  0.64576  0.64273  0.30009  1.0000
  O   O129      1.0  0.61321  0.61014  0.35733  1.0000
  H   H129      1.0  0.60101  0.60362  0.30671  1.0000
  O   O130      1.0  0.66078  0.57795  0.35171  1.0000
  H   H130      1.0  0.65351  0.56817  0.30054  1.0000
  C   C269      1.0  0.81020  0.40002  0.29132  1.0000
  C   C270      1.0  0.84132  0.40729  0.31329  1.0000
  C   C271      1.0  0.86649  0.39022  0.31598  1.0000
  C   C272      1.0  0.86172  0.36520  0.29571  1.0000
  O   O131      1.0  0.89462  0.39811  0.34858  1.0000
  H   H131      1.0  0.90642  0.40423  0.29650  1.0000
  O   O132      1.0  0.84685  0.43014  0.34445  1.0000
  H   H132      1.0  0.85356  0.43970  0.29211  1.0000
  C   C273      1.0  0.62101  0.27788  0.34975  1.0000
  C   C274      1.0  0.61206  0.26208  0.42040  1.0000
  C   C275      1.0  0.62052  0.23723  0.41831  1.0000
  C   C276      1.0  0.63702  0.22739  0.34402  1.0000
  O   O133      1.0  0.61284  0.22312  0.49028  1.0000
  H   H133      1.0  0.63115  0.22341  0.53054  1.0000
  O   O134      1.0  0.59776  0.27126  0.49515  1.0000
  H   H134      1.0  0.57697  0.26353  0.49955  1.0000
  C   C277      1.0  0.88641  0.72928  0.35017  1.0000
  C   C278      1.0  0.89086  0.74411  0.42688  1.0000
  C   C279      1.0  0.88235  0.76892  0.42487  1.0000
  C   C280      1.0  0.87062  0.77949  0.34498  1.0000
  O   O135      1.0  0.88580  0.78245  0.50089  1.0000
  H   H135      1.0  0.86562  0.78151  0.53285  1.0000
  O   O136      1.0  0.90103  0.73411  0.50553  1.0000
  H   H136      1.0  0.92234  0.74041  0.51615  1.0000
  C   C281      1.0  0.88533  0.23896  0.40271  1.0000
  C   C282      1.0  0.89385  0.26380  0.40500  1.0000
  O   O137      1.0  0.89301  0.22461  0.47407  1.0000
  O   O138      1.0  0.90788  0.27289  0.48034  1.0000
  H   H137      1.0  0.87494  0.22517  0.51518  1.0000
  H   H138      1.0  0.92820  0.26458  0.48721  1.0000
  C   C283      1.0  0.62717  0.76775  0.41109  1.0000
  C   C284      1.0  0.61925  0.74280  0.41322  1.0000
  O   O139      1.0  0.62550  0.78092  0.48846  1.0000
  O   O140      1.0  0.61146  0.73235  0.49325  1.0000
  H   H139      1.0  0.64622  0.77946  0.51726  1.0000
  H   H140      1.0  0.59029  0.73818  0.50860  1.0000
  C   C285      1.0  0.50411  0.01566  0.42646  1.0000
  C   C286      1.0  0.50449  0.98998  0.42136  1.0000
  O   O141      1.0  0.00485  0.02641  0.50886  1.0000
  O   O142      1.0  0.50446  0.97691  0.49905  1.0000
  H   H141      1.0  0.98280  0.02908  0.52614  1.0000
  H   H142      1.0  0.52665  0.97395  0.51399  1.0000
  C   C287      1.0  0.75517  0.51661  0.40533  1.0000
  C   C288      1.0  0.75560  0.49087  0.40485  1.0000
  O   O143      1.0  0.75700  0.52847  0.48546  1.0000
  O   O144      1.0  0.75682  0.47881  0.48465  1.0000
  H   H143      1.0  0.73520  0.53108  0.50524  1.0000
  H   H144      1.0  0.77924  0.47624  0.49765  1.0000
