data_image0
_chemical_formula_structural       C4OC4OH4N2C4H3CH3CHC4H3CH3CHC2HC2HN2C4H3CH3CHC4H3CH3CHC4OC4OH4N2C4H3CH3CHC4H3CH3CHC2HC2HN2C4H3CH3CHC4H3CH3CHC4OC4OH4N2C4H3CH3CHC4H3CH3CHC2HC2HN2C4H3CH3CHC4H3CH3CHC4OC4OH4N2C4H3CH3CHC4H3CH3CHC2HC2HN2C4H3CH3CHC4H3CH3CH
_chemical_formula_sum              "C144 O8 H136 N16"
_cell_length_a       31.728
_cell_length_b       31.728
_cell_length_c       14.9719
_cell_angle_alpha    90
_cell_angle_beta     90
_cell_angle_gamma    90

_space_group_name_H-M_alt    "P 1"
_space_group_IT_number       1

loop_
  _space_group_symop_operation_xyz
  'x, y, z'

loop_
  _atom_site_type_symbol
  _atom_site_label
  _atom_site_symmetry_multiplicity
  _atom_site_fract_x
  _atom_site_fract_y
  _atom_site_fract_z
  _atom_site_occupancy
  C   C1        1.0  0.01793  0.48386  0.32877  1.0000
  C   C2        1.0  0.08248  0.41983  0.33196  1.0000
  C   C3        1.0  0.09381  0.46255  0.33838  1.0000
  C   C4        1.0  0.06178  0.49357  0.33718  1.0000
  O   O1        1.0  0.11300  0.38951  0.33438  1.0000
  C   C5        1.0  0.48556  0.01591  0.32544  1.0000
  C   C6        1.0  0.44154  0.00625  0.33027  1.0000
  C   C7        1.0  0.40951  0.03705  0.32256  1.0000
  C   C8        1.0  0.42113  0.07948  0.31080  1.0000
  O   O2        1.0  0.39071  0.10970  0.30453  1.0000
  H   H1        1.0  0.12110  0.38421  0.27194  1.0000
  H   H2        1.0  0.38443  0.11847  0.36615  1.0000
  H   H3        1.0  0.07154  0.02380  0.34542  1.0000
  H   H4        1.0  0.43160  0.47631  0.34196  1.0000
  N   N1        1.0  0.36752  0.02974  0.33013  1.0000
  N   N2        1.0  0.13567  0.47039  0.34540  1.0000
  C   C9        1.0  0.00037  0.29596  0.31651  1.0000
  C   C10       1.0  0.96501  0.27226  0.28566  1.0000
  C   C11       1.0  0.96380  0.22775  0.29938  1.0000
  C   C12       1.0  0.92156  0.20684  0.30426  1.0000
  H   H5        1.0  0.89509  0.22863  0.30891  1.0000
  H   H6        1.0  0.41970  0.18810  0.36513  1.0000
  H   H7        1.0  0.91669  0.18705  0.24559  1.0000
  C   C13       1.0  0.93075  0.29338  0.23259  1.0000
  H   H8        1.0  0.94423  0.31570  0.18497  1.0000
  H   H9        1.0  0.90934  0.31012  0.27731  1.0000
  H   H10       1.0  0.91248  0.27139  0.19213  1.0000
  C   C14       1.0  0.99822  0.34087  0.31690  1.0000
  H   H11       1.0  0.97001  0.35569  0.30794  1.0000
  C   C15       1.0  0.20547  0.00275  0.35467  1.0000
  C   C16       1.0  0.22971  0.03948  0.33456  1.0000
  C   C17       1.0  0.27429  0.03900  0.34744  1.0000
  C   C18       1.0  0.29576  0.08008  0.36601  1.0000
  H   H12       1.0  0.27420  0.10436  0.39005  1.0000
  H   H13       1.0  0.31076  0.59152  0.30519  1.0000
  H   H14       1.0  0.31896  0.07662  0.41926  1.0000
  C   C19       1.0  0.20907  0.07769  0.29424  1.0000
  H   H15       1.0  0.18823  0.06832  0.23969  1.0000
  H   H16       1.0  0.23128  0.09987  0.26462  1.0000
  H   H17       1.0  0.19078  0.09432  0.34493  1.0000
  C   C20       1.0  0.16056  0.00473  0.35144  1.0000
  H   H18       1.0  0.14561  0.03307  0.34636  1.0000
  C   C21       1.0  0.00860  0.43986  0.32275  1.0000
  C   C22       1.0  0.03986  0.40809  0.32538  1.0000
  H   H19       1.0  0.47850  0.42977  0.31405  1.0000
  C   C23       1.0  0.46382  0.09140  0.31064  1.0000
  C   C24       1.0  0.49508  0.05983  0.31745  1.0000
  H   H20       1.0  0.02535  0.07002  0.31293  1.0000
  N   N3        1.0  0.47129  0.13347  0.30855  1.0000
  N   N4        1.0  0.03229  0.36608  0.32308  1.0000
  C   C25       1.0  0.50218  0.20487  0.31465  1.0000
  C   C26       1.0  0.53964  0.22891  0.33087  1.0000
  C   C27       1.0  0.53666  0.27324  0.34640  1.0000
  C   C28       1.0  0.58229  0.20828  0.33207  1.0000
  H   H21       1.0  0.58600  0.18820  0.27338  1.0000
  H   H22       1.0  0.58585  0.18926  0.39236  1.0000
  H   H23       1.0  0.10841  0.23058  0.32922  1.0000
  C   C29       1.0  0.56889  0.29370  0.40553  1.0000
  H   H24       1.0  0.55449  0.31699  0.44962  1.0000
  H   H25       1.0  0.09309  0.30870  0.36480  1.0000
  H   H26       1.0  0.58414  0.27124  0.45031  1.0000
  C   C30       1.0  0.50446  0.15979  0.31608  1.0000
  H   H27       1.0  0.53232  0.14513  0.32929  1.0000
  C   C31       1.0  0.29655  0.49972  0.35175  1.0000
  C   C32       1.0  0.27205  0.46210  0.36206  1.0000
  C   C33       1.0  0.22765  0.46493  0.37705  1.0000
  C   C34       1.0  0.29234  0.41940  0.35543  1.0000
  H   H28       1.0  0.31165  0.41764  0.29520  1.0000
  H   H29       1.0  0.26996  0.39347  0.34995  1.0000
  H   H30       1.0  0.31211  0.91372  0.41388  1.0000
  C   C35       1.0  0.20639  0.43031  0.42830  1.0000
  H   H31       1.0  0.18168  0.44247  0.47192  1.0000
  H   H32       1.0  0.22820  0.91402  0.47290  1.0000
  H   H33       1.0  0.19298  0.40737  0.38213  1.0000
  C   C36       1.0  0.34154  0.49701  0.34694  1.0000
  H   H34       1.0  0.35633  0.46889  0.35665  1.0000
  C   C37       1.0  0.01793  0.98386  0.32877  1.0000
  C   C38       1.0  0.08248  0.91982  0.33196  1.0000
  C   C39       1.0  0.09381  0.96255  0.33838  1.0000
  C   C40       1.0  0.06178  0.99357  0.33718  1.0000
  O   O3        1.0  0.11300  0.88951  0.33438  1.0000
  C   C41       1.0  0.48556  0.51591  0.32544  1.0000
  C   C42       1.0  0.44154  0.50625  0.33027  1.0000
  C   C43       1.0  0.40951  0.53705  0.32256  1.0000
  C   C44       1.0  0.42113  0.57948  0.31080  1.0000
  O   O4        1.0  0.39071  0.60970  0.30453  1.0000
  H   H35       1.0  0.12110  0.88421  0.27194  1.0000
  H   H36       1.0  0.38443  0.61847  0.36615  1.0000
  H   H37       1.0  0.07154  0.52380  0.34542  1.0000
  H   H38       1.0  0.43160  0.97631  0.34196  1.0000
  N   N5        1.0  0.36752  0.52974  0.33013  1.0000
  N   N6        1.0  0.13567  0.97039  0.34540  1.0000
  C   C45       1.0  0.00037  0.79596  0.31651  1.0000
  C   C46       1.0  0.96501  0.77226  0.28566  1.0000
  C   C47       1.0  0.96380  0.72775  0.29938  1.0000
  C   C48       1.0  0.92156  0.70684  0.30426  1.0000
  H   H39       1.0  0.89509  0.72863  0.30891  1.0000
  H   H40       1.0  0.41970  0.68810  0.36513  1.0000
  H   H41       1.0  0.91669  0.68705  0.24559  1.0000
  C   C49       1.0  0.93075  0.79339  0.23259  1.0000
  H   H42       1.0  0.94423  0.81570  0.18497  1.0000
  H   H43       1.0  0.90934  0.81012  0.27731  1.0000
  H   H44       1.0  0.91248  0.77139  0.19213  1.0000
  C   C50       1.0  0.99822  0.84087  0.31690  1.0000
  H   H45       1.0  0.97001  0.85569  0.30794  1.0000
  C   C51       1.0  0.20547  0.50275  0.35467  1.0000
  C   C52       1.0  0.22971  0.53948  0.33456  1.0000
  C   C53       1.0  0.27429  0.53900  0.34744  1.0000
  C   C54       1.0  0.29576  0.58008  0.36601  1.0000
  H   H46       1.0  0.27420  0.60436  0.39005  1.0000
  H   H47       1.0  0.31076  0.09152  0.30519  1.0000
  H   H48       1.0  0.31896  0.57662  0.41926  1.0000
  C   C55       1.0  0.20907  0.57769  0.29424  1.0000
  H   H49       1.0  0.18823  0.56832  0.23969  1.0000
  H   H50       1.0  0.23128  0.59987  0.26462  1.0000
  H   H51       1.0  0.19078  0.59432  0.34493  1.0000
  C   C56       1.0  0.16056  0.50473  0.35144  1.0000
  H   H52       1.0  0.14561  0.53307  0.34636  1.0000
  C   C57       1.0  0.00860  0.93986  0.32275  1.0000
  C   C58       1.0  0.03986  0.90809  0.32538  1.0000
  H   H53       1.0  0.47850  0.92977  0.31405  1.0000
  C   C59       1.0  0.46382  0.59140  0.31064  1.0000
  C   C60       1.0  0.49508  0.55983  0.31745  1.0000
  H   H54       1.0  0.02535  0.57002  0.31293  1.0000
  N   N7        1.0  0.47129  0.63347  0.30855  1.0000
  N   N8        1.0  0.03229  0.86608  0.32308  1.0000
  C   C61       1.0  0.50218  0.70487  0.31465  1.0000
  C   C62       1.0  0.53964  0.72891  0.33087  1.0000
  C   C63       1.0  0.53666  0.77323  0.34640  1.0000
  C   C64       1.0  0.58229  0.70828  0.33207  1.0000
  H   H55       1.0  0.58600  0.68821  0.27338  1.0000
  H   H56       1.0  0.58585  0.68926  0.39236  1.0000
  H   H57       1.0  0.10841  0.73058  0.32922  1.0000
  C   C65       1.0  0.56889  0.79370  0.40553  1.0000
  H   H58       1.0  0.55449  0.81699  0.44962  1.0000
  H   H59       1.0  0.09309  0.80871  0.36480  1.0000
  H   H60       1.0  0.58414  0.77124  0.45031  1.0000
  C   C66       1.0  0.50446  0.65979  0.31608  1.0000
  H   H61       1.0  0.53232  0.64513  0.32929  1.0000
  C   C67       1.0  0.29655  0.99972  0.35175  1.0000
  C   C68       1.0  0.27205  0.96210  0.36206  1.0000
  C   C69       1.0  0.22765  0.96493  0.37705  1.0000
  C   C70       1.0  0.29234  0.91940  0.35543  1.0000
  H   H62       1.0  0.31165  0.91763  0.29520  1.0000
  H   H63       1.0  0.26996  0.89347  0.34995  1.0000
  H   H64       1.0  0.31211  0.41372  0.41388  1.0000
  C   C71       1.0  0.20639  0.93031  0.42830  1.0000
  H   H65       1.0  0.18168  0.94247  0.47192  1.0000
  H   H66       1.0  0.22820  0.41402  0.47290  1.0000
  H   H67       1.0  0.19298  0.90737  0.38213  1.0000
  C   C72       1.0  0.34154  0.99702  0.34694  1.0000
  H   H68       1.0  0.35633  0.96889  0.35665  1.0000
  C   C73       1.0  0.51793  0.48386  0.32877  1.0000
  C   C74       1.0  0.58248  0.41983  0.33196  1.0000
  C   C75       1.0  0.59381  0.46255  0.33838  1.0000
  C   C76       1.0  0.56178  0.49357  0.33718  1.0000
  O   O5        1.0  0.61300  0.38951  0.33438  1.0000
  C   C77       1.0  0.98556  0.01591  0.32544  1.0000
  C   C78       1.0  0.94154  0.00625  0.33027  1.0000
  C   C79       1.0  0.90951  0.03705  0.32256  1.0000
  C   C80       1.0  0.92113  0.07948  0.31080  1.0000
  O   O6        1.0  0.89071  0.10970  0.30453  1.0000
  H   H69       1.0  0.62110  0.38421  0.27194  1.0000
  H   H70       1.0  0.88442  0.11847  0.36615  1.0000
  H   H71       1.0  0.57154  0.02380  0.34542  1.0000
  H   H72       1.0  0.93160  0.47631  0.34196  1.0000
  N   N9        1.0  0.86752  0.02974  0.33013  1.0000
  N   N10       1.0  0.63567  0.47039  0.34540  1.0000
  C   C81       1.0  0.50037  0.29596  0.31651  1.0000
  C   C82       1.0  0.46501  0.27226  0.28566  1.0000
  C   C83       1.0  0.46380  0.22775  0.29938  1.0000
  C   C84       1.0  0.42156  0.20684  0.30426  1.0000
  H   H73       1.0  0.39509  0.22863  0.30891  1.0000
  H   H74       1.0  0.91970  0.18810  0.36513  1.0000
  H   H75       1.0  0.41669  0.18705  0.24559  1.0000
  C   C85       1.0  0.43075  0.29338  0.23259  1.0000
  H   H76       1.0  0.44423  0.31570  0.18497  1.0000
  H   H77       1.0  0.40934  0.31012  0.27731  1.0000
  H   H78       1.0  0.41248  0.27139  0.19213  1.0000
  C   C86       1.0  0.49822  0.34087  0.31690  1.0000
  H   H79       1.0  0.47000  0.35569  0.30794  1.0000
  C   C87       1.0  0.70547  0.00275  0.35467  1.0000
  C   C88       1.0  0.72971  0.03948  0.33456  1.0000
  C   C89       1.0  0.77429  0.03900  0.34744  1.0000
  C   C90       1.0  0.79576  0.08008  0.36601  1.0000
  H   H80       1.0  0.77420  0.10436  0.39005  1.0000
  H   H81       1.0  0.81075  0.59152  0.30519  1.0000
  H   H82       1.0  0.81896  0.07662  0.41926  1.0000
  C   C91       1.0  0.70907  0.07769  0.29424  1.0000
  H   H83       1.0  0.68824  0.06832  0.23969  1.0000
  H   H84       1.0  0.73128  0.09987  0.26462  1.0000
  H   H85       1.0  0.69078  0.09432  0.34493  1.0000
  C   C92       1.0  0.66056  0.00473  0.35144  1.0000
  H   H86       1.0  0.64561  0.03307  0.34636  1.0000
  C   C93       1.0  0.50860  0.43986  0.32275  1.0000
  C   C94       1.0  0.53986  0.40809  0.32538  1.0000
  H   H87       1.0  0.97850  0.42977  0.31405  1.0000
  C   C95       1.0  0.96382  0.09140  0.31064  1.0000
  C   C96       1.0  0.99508  0.05983  0.31745  1.0000
  H   H88       1.0  0.52535  0.07002  0.31293  1.0000
  N   N11       1.0  0.97128  0.13347  0.30855  1.0000
  N   N12       1.0  0.53229  0.36608  0.32308  1.0000
  C   C97       1.0  0.00218  0.20487  0.31465  1.0000
  C   C98       1.0  0.03964  0.22891  0.33087  1.0000
  C   C99       1.0  0.03667  0.27324  0.34640  1.0000
  C   C100      1.0  0.08229  0.20828  0.33207  1.0000
  H   H89       1.0  0.08600  0.18820  0.27338  1.0000
  H   H90       1.0  0.08585  0.18926  0.39236  1.0000
  H   H91       1.0  0.60841  0.23058  0.32922  1.0000
  C   C101      1.0  0.06889  0.29370  0.40553  1.0000
  H   H92       1.0  0.05449  0.31699  0.44962  1.0000
  H   H93       1.0  0.59309  0.30870  0.36480  1.0000
  H   H94       1.0  0.08414  0.27124  0.45031  1.0000
  C   C102      1.0  0.00446  0.15979  0.31608  1.0000
  H   H95       1.0  0.03232  0.14513  0.32929  1.0000
  C   C103      1.0  0.79655  0.49972  0.35175  1.0000
  C   C104      1.0  0.77205  0.46210  0.36206  1.0000
  C   C105      1.0  0.72765  0.46493  0.37705  1.0000
  C   C106      1.0  0.79234  0.41940  0.35543  1.0000
  H   H96       1.0  0.81165  0.41764  0.29520  1.0000
  H   H97       1.0  0.76995  0.39347  0.34995  1.0000
  H   H98       1.0  0.81211  0.91372  0.41388  1.0000
  C   C107      1.0  0.70639  0.43031  0.42830  1.0000
  H   H99       1.0  0.68168  0.44247  0.47192  1.0000
  H   H100      1.0  0.72821  0.91402  0.47290  1.0000
  H   H101      1.0  0.69298  0.40737  0.38213  1.0000
  C   C108      1.0  0.84154  0.49701  0.34694  1.0000
  H   H102      1.0  0.85633  0.46889  0.35665  1.0000
  C   C109      1.0  0.51793  0.98386  0.32877  1.0000
  C   C110      1.0  0.58248  0.91982  0.33196  1.0000
  C   C111      1.0  0.59381  0.96255  0.33838  1.0000
  C   C112      1.0  0.56178  0.99357  0.33718  1.0000
  O   O7        1.0  0.61300  0.88951  0.33438  1.0000
  C   C113      1.0  0.98556  0.51591  0.32544  1.0000
  C   C114      1.0  0.94154  0.50625  0.33027  1.0000
  C   C115      1.0  0.90951  0.53705  0.32256  1.0000
  C   C116      1.0  0.92113  0.57948  0.31080  1.0000
  O   O8        1.0  0.89071  0.60970  0.30453  1.0000
  H   H103      1.0  0.62110  0.88421  0.27194  1.0000
  H   H104      1.0  0.88442  0.61847  0.36615  1.0000
  H   H105      1.0  0.57154  0.52380  0.34542  1.0000
  H   H106      1.0  0.93160  0.97631  0.34196  1.0000
  N   N13       1.0  0.86752  0.52974  0.33013  1.0000
  N   N14       1.0  0.63567  0.97039  0.34540  1.0000
  C   C117      1.0  0.50037  0.79596  0.31651  1.0000
  C   C118      1.0  0.46501  0.77226  0.28566  1.0000
  C   C119      1.0  0.46380  0.72775  0.29938  1.0000
  C   C120      1.0  0.42156  0.70684  0.30426  1.0000
  H   H107      1.0  0.39509  0.72863  0.30891  1.0000
  H   H108      1.0  0.91970  0.68810  0.36513  1.0000
  H   H109      1.0  0.41669  0.68705  0.24559  1.0000
  C   C121      1.0  0.43075  0.79339  0.23259  1.0000
  H   H110      1.0  0.44423  0.81570  0.18497  1.0000
  H   H111      1.0  0.40934  0.81012  0.27731  1.0000
  H   H112      1.0  0.41248  0.77139  0.19213  1.0000
  C   C122      1.0  0.49822  0.84087  0.31690  1.0000
  H   H113      1.0  0.47000  0.85569  0.30794  1.0000
  C   C123      1.0  0.70547  0.50275  0.35467  1.0000
  C   C124      1.0  0.72971  0.53948  0.33456  1.0000
  C   C125      1.0  0.77429  0.53900  0.34744  1.0000
  C   C126      1.0  0.79576  0.58008  0.36601  1.0000
  H   H114      1.0  0.77420  0.60436  0.39005  1.0000
  H   H115      1.0  0.81075  0.09152  0.30519  1.0000
  H   H116      1.0  0.81896  0.57662  0.41926  1.0000
  C   C127      1.0  0.70907  0.57769  0.29424  1.0000
  H   H117      1.0  0.68824  0.56832  0.23969  1.0000
  H   H118      1.0  0.73128  0.59987  0.26462  1.0000
  H   H119      1.0  0.69078  0.59432  0.34493  1.0000
  C   C128      1.0  0.66056  0.50473  0.35144  1.0000
  H   H120      1.0  0.64561  0.53307  0.34636  1.0000
  C   C129      1.0  0.50860  0.93986  0.32275  1.0000
  C   C130      1.0  0.53986  0.90809  0.32538  1.0000
  H   H121      1.0  0.97850  0.92977  0.31405  1.0000
  C   C131      1.0  0.96382  0.59140  0.31064  1.0000
  C   C132      1.0  0.99508  0.55983  0.31745  1.0000
  H   H122      1.0  0.52535  0.57002  0.31293  1.0000
  N   N15       1.0  0.97128  0.63347  0.30855  1.0000
  N   N16       1.0  0.53229  0.86608  0.32308  1.0000
  C   C133      1.0  0.00218  0.70487  0.31465  1.0000
  C   C134      1.0  0.03964  0.72891  0.33087  1.0000
  C   C135      1.0  0.03667  0.77323  0.34640  1.0000
  C   C136      1.0  0.08229  0.70828  0.33207  1.0000
  H   H123      1.0  0.08600  0.68821  0.27338  1.0000
  H   H124      1.0  0.08585  0.68926  0.39236  1.0000
  H   H125      1.0  0.60841  0.73058  0.32922  1.0000
  C   C137      1.0  0.06889  0.79370  0.40553  1.0000
  H   H126      1.0  0.05449  0.81699  0.44962  1.0000
  H   H127      1.0  0.59309  0.80871  0.36480  1.0000
  H   H128      1.0  0.08414  0.77124  0.45031  1.0000
  C   C138      1.0  0.00446  0.65979  0.31608  1.0000
  H   H129      1.0  0.03232  0.64513  0.32929  1.0000
  C   C139      1.0  0.79655  0.99972  0.35175  1.0000
  C   C140      1.0  0.77205  0.96210  0.36206  1.0000
  C   C141      1.0  0.72765  0.96493  0.37705  1.0000
  C   C142      1.0  0.79234  0.91940  0.35543  1.0000
  H   H130      1.0  0.81165  0.91763  0.29520  1.0000
  H   H131      1.0  0.76995  0.89347  0.34995  1.0000
  H   H132      1.0  0.81211  0.41372  0.41388  1.0000
  C   C143      1.0  0.70639  0.93031  0.42830  1.0000
  H   H133      1.0  0.68168  0.94247  0.47192  1.0000
  H   H134      1.0  0.72821  0.41402  0.47290  1.0000
  H   H135      1.0  0.69298  0.90737  0.38213  1.0000
  C   C144      1.0  0.84154  0.99702  0.34694  1.0000
  H   H136      1.0  0.85633  0.96889  0.35665  1.0000
