data_image0
_chemical_formula_structural       C4NC2HNHNC2HNHNC2HNHC5H3C2O3C5H3C2O3CNC2N2HCNC2N2HCNC2N2HC4NC2HNHNC2HNHNC2HNHC5H3C2O3C5H3C2O3CNC2N2HCNC2N2HCNC2N2HC4NC2HNHNC2HNHNC2HNHC5H3C2O3C5H3C2O3CNC2N2HCNC2N2HCNC2N2HC4NC2HNHNC2HNHNC2HNHC5H3C2O3C5H3C2O3CNC2N2HCNC2N2HCNC2N2H
_chemical_formula_sum              "C132 N60 H60 O24"
_cell_length_a       43.5659
_cell_length_b       43.5658
_cell_length_c       15.0502
_cell_angle_alpha    90
_cell_angle_beta     90
_cell_angle_gamma    120

_space_group_name_H-M_alt    "P 1"
_space_group_IT_number       1

loop_
  _space_group_symop_operation_xyz
  'x, y, z'

loop_
  _atom_site_type_symbol
  _atom_site_label
  _atom_site_symmetry_multiplicity
  _atom_site_fract_x
  _atom_site_fract_y
  _atom_site_fract_z
  _atom_site_occupancy
  C   C1        1.0  0.18960  0.31976  0.42540  1.0000
  C   C2        1.0  0.21512  0.30871  0.41413  1.0000
  C   C3        1.0  0.30530  0.17677  0.24242  1.0000
  C   C4        1.0  0.27972  0.18764  0.25511  1.0000
  N   N1        1.0  0.25649  0.28173  0.33006  1.0000
  C   C5        1.0  0.27651  0.27048  0.28774  1.0000
  C   C6        1.0  0.26689  0.23444  0.29364  1.0000
  H   H1        1.0  0.29803  0.28819  0.25189  1.0000
  N   N2        1.0  0.28698  0.22202  0.25562  1.0000
  H   H2        1.0  0.30884  0.23969  0.22767  1.0000
  N   N3        1.0  0.21411  0.47393  0.32994  1.0000
  C   C7        1.0  0.22537  0.00521  0.28770  1.0000
  C   C8        1.0  0.26140  0.03163  0.29364  1.0000
  H   H3        1.0  0.20766  0.00903  0.25179  1.0000
  N   N4        1.0  0.27383  0.06415  0.25563  1.0000
  H   H4        1.0  0.25616  0.06834  0.22768  1.0000
  N   N5        1.0  0.02190  0.23933  0.33007  1.0000
  C   C9        1.0  0.49064  0.21933  0.28774  1.0000
  C   C10       1.0  0.46422  0.22895  0.29364  1.0000
  H   H5        1.0  0.48682  0.19780  0.25187  1.0000
  N   N6        1.0  0.43170  0.20886  0.25561  1.0000
  H   H6        1.0  0.42752  0.18702  0.22761  1.0000
  C   C11       1.0  0.17606  0.36899  0.42524  1.0000
  C   C12       1.0  0.13953  0.34318  0.42594  1.0000
  C   C13       1.0  0.12682  0.30622  0.42540  1.0000
  C   C14       1.0  0.15264  0.29552  0.42603  1.0000
  C   C15       1.0  0.20031  0.35629  0.42604  1.0000
  H   H7        1.0  0.14400  0.26912  0.42098  1.0000
  H   H8        1.0  0.22669  0.37403  0.42074  1.0000
  H   H9        1.0  0.12178  0.35182  0.42081  1.0000
  C   C16       1.0  0.18711  0.40556  0.41394  1.0000
  C   C17       1.0  0.09025  0.28070  0.41417  1.0000
  O   O1        1.0  0.24918  0.33410  0.39778  1.0000
  O   O2        1.0  0.16173  0.41423  0.39746  1.0000
  O   O3        1.0  0.08157  0.24663  0.39782  1.0000
  C   C18       1.0  0.31908  0.12772  0.24251  1.0000
  C   C19       1.0  0.35558  0.15363  0.24147  1.0000
  C   C20       1.0  0.36814  0.19054  0.24240  1.0000
  C   C21       1.0  0.34222  0.20112  0.24151  1.0000
  C   C22       1.0  0.29472  0.14027  0.24153  1.0000
  H   H10       1.0  0.35073  0.22750  0.24655  1.0000
  H   H11       1.0  0.26835  0.12242  0.24660  1.0000
  H   H12       1.0  0.37344  0.14512  0.24658  1.0000
  C   C23       1.0  0.30821  0.09127  0.25513  1.0000
  C   C24       1.0  0.40458  0.21613  0.25507  1.0000
  O   O4        1.0  0.24568  0.16205  0.27087  1.0000
  O   O5        1.0  0.33379  0.08281  0.27092  1.0000
  O   O6        1.0  0.41304  0.25016  0.27096  1.0000
  C   C25       1.0  0.22741  0.26087  0.38059  1.0000
  N   N7        1.0  0.23800  0.21355  0.34445  1.0000
  C   C26       1.0  0.21795  0.22465  0.38735  1.0000
  C   C27       1.0  0.19140  0.20087  0.43328  1.0000
  N   N8        1.0  0.16805  0.17988  0.47413  1.0000
  N   N9        1.0  0.20770  0.27429  0.41641  1.0000
  H   H13       1.0  0.18578  0.25732  0.44503  1.0000
  C   C28       1.0  0.23497  0.46570  0.38047  1.0000
  N   N10       1.0  0.28229  0.02363  0.34445  1.0000
  C   C29       1.0  0.27118  0.49247  0.38732  1.0000
  C   C30       1.0  0.29495  0.48968  0.43326  1.0000
  N   N11       1.0  0.31593  0.48731  0.47413  1.0000
  N   N12       1.0  0.22153  0.43257  0.41628  1.0000
  H   H14       1.0  0.23849  0.42762  0.44496  1.0000
  C   C31       1.0  0.03012  0.26841  0.38061  1.0000
  N   N13       1.0  0.47221  0.25783  0.34446  1.0000
  C   C32       1.0  0.00336  0.27788  0.38736  1.0000
  C   C33       1.0  0.00614  0.30442  0.43334  1.0000
  N   N14       1.0  0.00849  0.32776  0.47425  1.0000
  N   N15       1.0  0.06325  0.28812  0.41645  1.0000
  H   H15       1.0  0.06820  0.31004  0.44509  1.0000
  C   C34       1.0  0.18960  0.81976  0.42540  1.0000
  C   C35       1.0  0.21512  0.80871  0.41413  1.0000
  C   C36       1.0  0.30530  0.67677  0.24242  1.0000
  C   C37       1.0  0.27972  0.68764  0.25511  1.0000
  N   N16       1.0  0.25649  0.78173  0.33006  1.0000
  C   C38       1.0  0.27650  0.77048  0.28774  1.0000
  C   C39       1.0  0.26689  0.73444  0.29364  1.0000
  H   H16       1.0  0.29803  0.78819  0.25189  1.0000
  N   N17       1.0  0.28698  0.72202  0.25562  1.0000
  H   H17       1.0  0.30884  0.73969  0.22767  1.0000
  N   N18       1.0  0.21411  0.97393  0.32994  1.0000
  C   C40       1.0  0.22537  0.50521  0.28770  1.0000
  C   C41       1.0  0.26140  0.53163  0.29364  1.0000
  H   H18       1.0  0.20766  0.50903  0.25179  1.0000
  N   N19       1.0  0.27383  0.56415  0.25563  1.0000
  H   H19       1.0  0.25616  0.56834  0.22768  1.0000
  N   N20       1.0  0.02190  0.73933  0.33007  1.0000
  C   C42       1.0  0.49064  0.71933  0.28774  1.0000
  C   C43       1.0  0.46422  0.72895  0.29364  1.0000
  H   H20       1.0  0.48682  0.69780  0.25187  1.0000
  N   N21       1.0  0.43170  0.70886  0.25561  1.0000
  H   H21       1.0  0.42752  0.68702  0.22761  1.0000
  C   C44       1.0  0.17606  0.86899  0.42524  1.0000
  C   C45       1.0  0.13954  0.84318  0.42594  1.0000
  C   C46       1.0  0.12682  0.80622  0.42540  1.0000
  C   C47       1.0  0.15264  0.79552  0.42603  1.0000
  C   C48       1.0  0.20031  0.85629  0.42604  1.0000
  H   H22       1.0  0.14400  0.76912  0.42098  1.0000
  H   H23       1.0  0.22669  0.87403  0.42074  1.0000
  H   H24       1.0  0.12178  0.85182  0.42081  1.0000
  C   C49       1.0  0.18711  0.90556  0.41394  1.0000
  C   C50       1.0  0.09025  0.78070  0.41417  1.0000
  O   O7        1.0  0.24918  0.83410  0.39778  1.0000
  O   O8        1.0  0.16173  0.91423  0.39746  1.0000
  O   O9        1.0  0.08157  0.74663  0.39782  1.0000
  C   C51       1.0  0.31908  0.62772  0.24251  1.0000
  C   C52       1.0  0.35558  0.65363  0.24147  1.0000
  C   C53       1.0  0.36814  0.69054  0.24240  1.0000
  C   C54       1.0  0.34222  0.70112  0.24151  1.0000
  C   C55       1.0  0.29472  0.64028  0.24153  1.0000
  H   H25       1.0  0.35073  0.72750  0.24655  1.0000
  H   H26       1.0  0.26835  0.62242  0.24660  1.0000
  H   H27       1.0  0.37344  0.64512  0.24658  1.0000
  C   C56       1.0  0.30821  0.59127  0.25513  1.0000
  C   C57       1.0  0.40459  0.71613  0.25507  1.0000
  O   O10       1.0  0.24568  0.66205  0.27087  1.0000
  O   O11       1.0  0.33379  0.58281  0.27092  1.0000
  O   O12       1.0  0.41303  0.75016  0.27096  1.0000
  C   C58       1.0  0.22741  0.76087  0.38059  1.0000
  N   N22       1.0  0.23800  0.71355  0.34445  1.0000
  C   C59       1.0  0.21795  0.72465  0.38735  1.0000
  C   C60       1.0  0.19140  0.70087  0.43328  1.0000
  N   N23       1.0  0.16805  0.67989  0.47413  1.0000
  N   N24       1.0  0.20770  0.77429  0.41641  1.0000
  H   H28       1.0  0.18578  0.75732  0.44503  1.0000
  C   C61       1.0  0.23497  0.96571  0.38047  1.0000
  N   N25       1.0  0.28229  0.52363  0.34445  1.0000
  C   C62       1.0  0.27118  0.99247  0.38732  1.0000
  C   C63       1.0  0.29495  0.98968  0.43326  1.0000
  N   N26       1.0  0.31593  0.98731  0.47413  1.0000
  N   N27       1.0  0.22153  0.93257  0.41628  1.0000
  H   H29       1.0  0.23849  0.92762  0.44496  1.0000
  C   C64       1.0  0.03012  0.76842  0.38061  1.0000
  N   N28       1.0  0.47221  0.75783  0.34446  1.0000
  C   C65       1.0  0.00336  0.77788  0.38736  1.0000
  C   C66       1.0  0.00613  0.80442  0.43334  1.0000
  N   N29       1.0  0.00849  0.82776  0.47425  1.0000
  N   N30       1.0  0.06325  0.78812  0.41645  1.0000
  H   H30       1.0  0.06820  0.81004  0.44509  1.0000
  C   C67       1.0  0.68959  0.31976  0.42540  1.0000
  C   C68       1.0  0.71512  0.30871  0.41413  1.0000
  C   C69       1.0  0.80530  0.17677  0.24242  1.0000
  C   C70       1.0  0.77972  0.18764  0.25511  1.0000
  N   N31       1.0  0.75649  0.28173  0.33006  1.0000
  C   C71       1.0  0.77650  0.27048  0.28774  1.0000
  C   C72       1.0  0.76689  0.23444  0.29364  1.0000
  H   H31       1.0  0.79803  0.28819  0.25189  1.0000
  N   N32       1.0  0.78698  0.22202  0.25562  1.0000
  H   H32       1.0  0.80884  0.23969  0.22767  1.0000
  N   N33       1.0  0.71411  0.47393  0.32994  1.0000
  C   C73       1.0  0.72537  0.00521  0.28770  1.0000
  C   C74       1.0  0.76140  0.03163  0.29364  1.0000
  H   H33       1.0  0.70766  0.00903  0.25179  1.0000
  N   N34       1.0  0.77383  0.06415  0.25563  1.0000
  H   H34       1.0  0.75616  0.06834  0.22768  1.0000
  N   N35       1.0  0.52190  0.23933  0.33007  1.0000
  C   C75       1.0  0.99064  0.21933  0.28774  1.0000
  C   C76       1.0  0.96422  0.22895  0.29364  1.0000
  H   H35       1.0  0.98682  0.19780  0.25187  1.0000
  N   N36       1.0  0.93170  0.20886  0.25561  1.0000
  H   H36       1.0  0.92752  0.18702  0.22761  1.0000
  C   C77       1.0  0.67606  0.36899  0.42524  1.0000
  C   C78       1.0  0.63953  0.34318  0.42594  1.0000
  C   C79       1.0  0.62682  0.30622  0.42540  1.0000
  C   C80       1.0  0.65264  0.29552  0.42603  1.0000
  C   C81       1.0  0.70030  0.35629  0.42604  1.0000
  H   H37       1.0  0.64400  0.26912  0.42098  1.0000
  H   H38       1.0  0.72669  0.37403  0.42074  1.0000
  H   H39       1.0  0.62178  0.35182  0.42081  1.0000
  C   C82       1.0  0.68711  0.40556  0.41394  1.0000
  C   C83       1.0  0.59025  0.28070  0.41417  1.0000
  O   O13       1.0  0.74918  0.33410  0.39778  1.0000
  O   O14       1.0  0.66173  0.41423  0.39746  1.0000
  O   O15       1.0  0.58157  0.24663  0.39782  1.0000
  C   C84       1.0  0.81908  0.12772  0.24251  1.0000
  C   C85       1.0  0.85558  0.15363  0.24147  1.0000
  C   C86       1.0  0.86814  0.19054  0.24240  1.0000
  C   C87       1.0  0.84222  0.20112  0.24151  1.0000
  C   C88       1.0  0.79472  0.14027  0.24153  1.0000
  H   H40       1.0  0.85073  0.22750  0.24655  1.0000
  H   H41       1.0  0.76835  0.12242  0.24660  1.0000
  H   H42       1.0  0.87344  0.14512  0.24658  1.0000
  C   C89       1.0  0.80820  0.09127  0.25513  1.0000
  C   C90       1.0  0.90459  0.21613  0.25507  1.0000
  O   O16       1.0  0.74568  0.16205  0.27087  1.0000
  O   O17       1.0  0.83379  0.08281  0.27092  1.0000
  O   O18       1.0  0.91303  0.25016  0.27096  1.0000
  C   C91       1.0  0.72741  0.26087  0.38059  1.0000
  N   N37       1.0  0.73801  0.21355  0.34445  1.0000
  C   C92       1.0  0.71795  0.22465  0.38735  1.0000
  C   C93       1.0  0.69140  0.20087  0.43328  1.0000
  N   N38       1.0  0.66805  0.17988  0.47413  1.0000
  N   N39       1.0  0.70770  0.27429  0.41641  1.0000
  H   H43       1.0  0.68578  0.25732  0.44503  1.0000
  C   C94       1.0  0.73497  0.46570  0.38047  1.0000
  N   N40       1.0  0.78229  0.02363  0.34445  1.0000
  C   C95       1.0  0.77118  0.49247  0.38732  1.0000
  C   C96       1.0  0.79495  0.48968  0.43326  1.0000
  N   N41       1.0  0.81593  0.48731  0.47413  1.0000
  N   N42       1.0  0.72153  0.43257  0.41628  1.0000
  H   H44       1.0  0.73849  0.42762  0.44496  1.0000
  C   C97       1.0  0.53012  0.26841  0.38061  1.0000
  N   N43       1.0  0.97221  0.25783  0.34446  1.0000
  C   C98       1.0  0.50336  0.27788  0.38736  1.0000
  C   C99       1.0  0.50614  0.30442  0.43334  1.0000
  N   N44       1.0  0.50849  0.32776  0.47425  1.0000
  N   N45       1.0  0.56325  0.28812  0.41645  1.0000
  H   H45       1.0  0.56820  0.31004  0.44509  1.0000
  C   C100      1.0  0.68960  0.81976  0.42540  1.0000
  C   C101      1.0  0.71511  0.80871  0.41413  1.0000
  C   C102      1.0  0.80530  0.67677  0.24242  1.0000
  C   C103      1.0  0.77972  0.68764  0.25511  1.0000
  N   N46       1.0  0.75649  0.78173  0.33006  1.0000
  C   C104      1.0  0.77650  0.77048  0.28774  1.0000
  C   C105      1.0  0.76689  0.73444  0.29364  1.0000
  H   H46       1.0  0.79804  0.78819  0.25189  1.0000
  N   N47       1.0  0.78698  0.72202  0.25562  1.0000
  H   H47       1.0  0.80884  0.73969  0.22767  1.0000
  N   N48       1.0  0.71411  0.97393  0.32994  1.0000
  C   C106      1.0  0.72537  0.50521  0.28770  1.0000
  C   C107      1.0  0.76140  0.53163  0.29364  1.0000
  H   H48       1.0  0.70766  0.50903  0.25179  1.0000
  N   N49       1.0  0.77383  0.56415  0.25563  1.0000
  H   H49       1.0  0.75616  0.56834  0.22768  1.0000
  N   N50       1.0  0.52190  0.73933  0.33007  1.0000
  C   C108      1.0  0.99064  0.71933  0.28774  1.0000
  C   C109      1.0  0.96422  0.72895  0.29364  1.0000
  H   H50       1.0  0.98682  0.69780  0.25187  1.0000
  N   N51       1.0  0.93170  0.70886  0.25561  1.0000
  H   H51       1.0  0.92752  0.68702  0.22761  1.0000
  C   C110      1.0  0.67606  0.86899  0.42524  1.0000
  C   C111      1.0  0.63953  0.84318  0.42594  1.0000
  C   C112      1.0  0.62682  0.80622  0.42540  1.0000
  C   C113      1.0  0.65264  0.79552  0.42603  1.0000
  C   C114      1.0  0.70030  0.85629  0.42604  1.0000
  H   H52       1.0  0.64400  0.76912  0.42098  1.0000
  H   H53       1.0  0.72669  0.87403  0.42074  1.0000
  H   H54       1.0  0.62178  0.85182  0.42081  1.0000
  C   C115      1.0  0.68711  0.90556  0.41394  1.0000
  C   C116      1.0  0.59025  0.78070  0.41417  1.0000
  O   O19       1.0  0.74918  0.83410  0.39778  1.0000
  O   O20       1.0  0.66173  0.91423  0.39746  1.0000
  O   O21       1.0  0.58157  0.74663  0.39782  1.0000
  C   C117      1.0  0.81908  0.62772  0.24251  1.0000
  C   C118      1.0  0.85558  0.65363  0.24147  1.0000
  C   C119      1.0  0.86814  0.69054  0.24240  1.0000
  C   C120      1.0  0.84222  0.70112  0.24151  1.0000
  C   C121      1.0  0.79472  0.64028  0.24153  1.0000
  H   H55       1.0  0.85073  0.72750  0.24655  1.0000
  H   H56       1.0  0.76835  0.62242  0.24660  1.0000
  H   H57       1.0  0.87344  0.64512  0.24658  1.0000
  C   C122      1.0  0.80821  0.59127  0.25513  1.0000
  C   C123      1.0  0.90459  0.71613  0.25507  1.0000
  O   O22       1.0  0.74568  0.66205  0.27087  1.0000
  O   O23       1.0  0.83379  0.58281  0.27092  1.0000
  O   O24       1.0  0.91304  0.75016  0.27096  1.0000
  C   C124      1.0  0.72741  0.76087  0.38059  1.0000
  N   N52       1.0  0.73800  0.71355  0.34445  1.0000
  C   C125      1.0  0.71795  0.72465  0.38735  1.0000
  C   C126      1.0  0.69140  0.70087  0.43328  1.0000
  N   N53       1.0  0.66805  0.67989  0.47413  1.0000
  N   N54       1.0  0.70770  0.77429  0.41641  1.0000
  H   H58       1.0  0.68578  0.75732  0.44503  1.0000
  C   C127      1.0  0.73497  0.96571  0.38047  1.0000
  N   N55       1.0  0.78229  0.52363  0.34445  1.0000
  C   C128      1.0  0.77118  0.99247  0.38732  1.0000
  C   C129      1.0  0.79495  0.98968  0.43326  1.0000
  N   N56       1.0  0.81593  0.98731  0.47413  1.0000
  N   N57       1.0  0.72153  0.93257  0.41628  1.0000
  H   H59       1.0  0.73849  0.92762  0.44496  1.0000
  C   C130      1.0  0.53012  0.76842  0.38061  1.0000
  N   N58       1.0  0.97221  0.75783  0.34446  1.0000
  C   C131      1.0  0.50336  0.77788  0.38736  1.0000
  C   C132      1.0  0.50614  0.80442  0.43334  1.0000
  N   N59       1.0  0.50849  0.82776  0.47425  1.0000
  N   N60       1.0  0.56325  0.78812  0.41645  1.0000
  H   H60       1.0  0.56820  0.81004  0.44509  1.0000
