data_image0
_chemical_formula_structural       CNCH2C3HC2H2CHCHC16H11C17H12C2NC3NHCH3C2NC3NHCH3C2NHC12H8C13H9C2HC5H3C2HC5H3C4H2
_chemical_formula_sum              "C99 N6 H66"
_cell_length_a       44.6564
_cell_length_b       44.6311
_cell_length_c       14.8978
_cell_angle_alpha    90
_cell_angle_beta     90
_cell_angle_gamma    120.031

_space_group_name_H-M_alt    "P 1"
_space_group_IT_number       1

loop_
  _space_group_symop_operation_xyz
  'x, y, z'

loop_
  _atom_site_type_symbol
  _atom_site_label
  _atom_site_symmetry_multiplicity
  _atom_site_fract_x
  _atom_site_fract_y
  _atom_site_fract_z
  _atom_site_occupancy
  C   C1        1.0  0.07707  0.54398  0.25447  1.0000
  N   N1        1.0  0.04195  0.52732  0.26053  1.0000
  C   C2        1.0  0.02362  0.51257  0.33652  1.0000
  H   H1        1.0  0.08517  0.57674  0.14379  1.0000
  H   H2        1.0  0.08020  0.53585  0.11593  1.0000
  C   C3        1.0  0.04194  0.51430  0.41600  1.0000
  C   C4        1.0  0.07840  0.53125  0.41267  1.0000
  C   C5        1.0  0.02341  0.49913  0.49573  1.0000
  H   H3        1.0  0.03620  0.50018  0.55370  1.0000
  C   C6        1.0  0.09665  0.54640  0.33228  1.0000
  C   C7        1.0  0.09155  0.55710  0.16414  1.0000
  H   H4        1.0  0.11954  0.56849  0.16125  1.0000
  H   H5        1.0  0.09186  0.53279  0.46988  1.0000
  C   C8        1.0  0.15047  0.54434  0.34855  1.0000
  H   H6        1.0  0.13652  0.51803  0.35621  1.0000
  C   C9        1.0  0.13343  0.56336  0.33356  1.0000
  H   H7        1.0  0.14203  0.61425  0.31568  1.0000
  C   C10       1.0  0.45348  0.85461  0.32656  1.0000
  C   C11       1.0  0.43376  0.81822  0.33073  1.0000
  C   C12       1.0  0.37990  0.74234  0.29604  1.0000
  C   C13       1.0  0.35923  0.70652  0.30340  1.0000
  C   C14       1.0  0.32268  0.69020  0.30296  1.0000
  C   C15       1.0  0.30169  0.65372  0.30388  1.0000
  C   C16       1.0  0.31798  0.63347  0.30351  1.0000
  C   C17       1.0  0.35444  0.64894  0.30380  1.0000
  C   C18       1.0  0.37468  0.68552  0.30284  1.0000
  C   C19       1.0  0.36949  0.62817  0.29690  1.0000
  C   C20       1.0  0.41127  0.61127  0.34033  1.0000
  C   C21       1.0  0.39172  0.57466  0.33708  1.0000
  C   C22       1.0  0.40819  0.55478  0.33276  1.0000
  C   C23       1.0  0.26590  0.63856  0.29672  1.0000
  C   C24       1.0  0.20724  0.59749  0.34320  1.0000
  C   C25       1.0  0.18682  0.56115  0.35317  1.0000
  H   H8        1.0  0.47976  0.86627  0.31970  1.0000
  H   H9        1.0  0.44634  0.80438  0.32750  1.0000
  H   H10       1.0  0.40110  0.69705  0.29961  1.0000
  H   H11       1.0  0.31117  0.70511  0.29989  1.0000
  H   H12       1.0  0.30303  0.60703  0.30086  1.0000
  H   H13       1.0  0.39338  0.52836  0.33146  1.0000
  H   H14       1.0  0.36528  0.56210  0.33953  1.0000
  H   H15       1.0  0.19825  0.54651  0.36417  1.0000
  H   H16       1.0  0.35986  0.60959  0.25065  1.0000
  H   H17       1.0  0.39771  0.75126  0.24782  1.0000
  H   H18       1.0  0.25696  0.64715  0.24784  1.0000
  C   C26       1.0  0.55983  0.15114  0.30196  1.0000
  C   C27       1.0  0.57836  0.18759  0.30550  1.0000
  C   C28       1.0  0.63182  0.26410  0.29390  1.0000
  C   C29       1.0  0.65157  0.29985  0.30238  1.0000
  C   C30       1.0  0.68809  0.31661  0.30591  1.0000
  C   C31       1.0  0.70878  0.35319  0.30562  1.0000
  C   C32       1.0  0.69187  0.37287  0.30054  1.0000
  C   C33       1.0  0.65538  0.35677  0.29821  1.0000
  C   C34       1.0  0.63552  0.32023  0.29809  1.0000
  C   C35       1.0  0.63953  0.37659  0.28849  1.0000
  C   C36       1.0  0.60222  0.39782  0.34484  1.0000
  C   C37       1.0  0.61653  0.43018  0.30045  1.0000
  C   C38       1.0  0.59878  0.44886  0.29752  1.0000
  C   C39       1.0  0.74480  0.36846  0.30256  1.0000
  C   C40       1.0  0.80305  0.41253  0.33869  1.0000
  C   C41       1.0  0.82345  0.44516  0.29772  1.0000
  C   C42       1.0  0.85977  0.46085  0.29551  1.0000
  H   H19       1.0  0.53641  0.13914  0.27000  1.0000
  H   H20       1.0  0.56772  0.20076  0.27581  1.0000
  H   H21       1.0  0.60911  0.30833  0.29289  1.0000
  H   H22       1.0  0.69980  0.30186  0.30639  1.0000
  H   H23       1.0  0.70629  0.39931  0.29654  1.0000
  H   H24       1.0  0.61040  0.47246  0.26635  1.0000
  H   H25       1.0  0.64043  0.44089  0.27123  1.0000
  H   H26       1.0  0.87369  0.48480  0.26678  1.0000
  H   H27       1.0  0.81207  0.45793  0.26964  1.0000
  H   H28       1.0  0.64333  0.38921  0.23087  1.0000
  H   H29       1.0  0.61939  0.25505  0.23612  1.0000
  H   H30       1.0  0.75437  0.35613  0.26756  1.0000
  C   C43       1.0  0.46139  0.55107  0.33069  1.0000
  C   C44       1.0  0.47610  0.54548  0.25230  1.0000
  N   N2        1.0  0.49258  0.52687  0.25927  1.0000
  C   C45       1.0  0.49624  0.51297  0.33677  1.0000
  C   C46       1.0  0.51385  0.49399  0.33866  1.0000
  C   C47       1.0  0.54503  0.47107  0.26148  1.0000
  N   N3        1.0  0.52789  0.48906  0.26304  1.0000
  H   H31       1.0  0.55437  0.46824  0.20139  1.0000
  C   C48       1.0  0.47473  0.55803  0.16123  1.0000
  H   H32       1.0  0.46066  0.57213  0.15903  1.0000
  H   H33       1.0  0.46198  0.53604  0.11557  1.0000
  H   H34       1.0  0.50100  0.57521  0.13723  1.0000
  C   C49       1.0  0.45720  0.91148  0.33314  1.0000
  C   C50       1.0  0.46367  0.93189  0.25453  1.0000
  N   N4        1.0  0.48232  0.96699  0.26186  1.0000
  C   C51       1.0  0.49555  0.98446  0.33990  1.0000
  C   C52       1.0  0.51463  0.02106  0.34218  1.0000
  C   C53       1.0  0.53826  0.07531  0.26531  1.0000
  N   N5        1.0  0.52023  0.04017  0.26646  1.0000
  H   H35       1.0  0.54159  0.08761  0.20518  1.0000
  C   C54       1.0  0.45171  0.91806  0.16308  1.0000
  H   H36       1.0  0.43715  0.88987  0.16094  1.0000
  H   H37       1.0  0.47403  0.92692  0.11874  1.0000
  H   H38       1.0  0.43513  0.92761  0.13744  1.0000
  C   C55       1.0  0.98706  0.49553  0.33724  1.0000
  C   C56       1.0  0.93387  0.47750  0.25929  1.0000
  N   N6        1.0  0.96892  0.49348  0.26196  1.0000
  H   H39       1.0  0.92233  0.47692  0.19955  1.0000
  C   C57       1.0  0.43731  0.87480  0.33322  1.0000
  C   C58       1.0  0.39737  0.80106  0.34164  1.0000
  C   C59       1.0  0.38142  0.82153  0.34892  1.0000
  C   C60       1.0  0.40109  0.85790  0.34455  1.0000
  C   C61       1.0  0.37733  0.76518  0.34990  1.0000
  C   C62       1.0  0.39572  0.63152  0.34867  1.0000
  C   C63       1.0  0.44779  0.62732  0.33974  1.0000
  C   C64       1.0  0.44464  0.57100  0.33127  1.0000
  C   C65       1.0  0.46428  0.60749  0.33484  1.0000
  C   C66       1.0  0.24312  0.61346  0.35143  1.0000
  C   C67       1.0  0.19003  0.61652  0.32948  1.0000
  C   C68       1.0  0.15367  0.59970  0.32452  1.0000
  H   H40       1.0  0.38880  0.87196  0.35082  1.0000
  H   H41       1.0  0.35524  0.81011  0.35795  1.0000
  H   H42       1.0  0.20381  0.64292  0.32440  1.0000
  H   H43       1.0  0.46280  0.65371  0.34316  1.0000
  H   H44       1.0  0.49074  0.61986  0.33534  1.0000
  H   H45       1.0  0.40547  0.65024  0.39455  1.0000
  H   H46       1.0  0.35930  0.75607  0.39761  1.0000
  H   H47       1.0  0.25229  0.60483  0.39972  1.0000
  C   C69       1.0  0.57232  0.13133  0.34530  1.0000
  C   C70       1.0  0.61047  0.20567  0.35099  1.0000
  C   C71       1.0  0.62303  0.18581  0.39372  1.0000
  C   C72       1.0  0.60431  0.14939  0.39107  1.0000
  C   C73       1.0  0.62918  0.24177  0.35835  1.0000
  C   C74       1.0  0.61951  0.37904  0.35229  1.0000
  C   C75       1.0  0.56968  0.38515  0.38701  1.0000
  C   C76       1.0  0.56635  0.43627  0.34031  1.0000
  C   C77       1.0  0.55213  0.40399  0.38488  1.0000
  C   C78       1.0  0.76740  0.39808  0.34407  1.0000
  C   C79       1.0  0.81988  0.39613  0.37811  1.0000
  C   C80       1.0  0.87689  0.44475  0.33556  1.0000
  C   C81       1.0  0.85622  0.41206  0.37665  1.0000
  H   H48       1.0  0.61451  0.13613  0.42257  1.0000
  H   H49       1.0  0.64604  0.19773  0.42775  1.0000
  H   H50       1.0  0.80585  0.37268  0.40936  1.0000
  H   H51       1.0  0.55839  0.36196  0.42031  1.0000
  H   H52       1.0  0.52858  0.39369  0.41592  1.0000
  H   H53       1.0  0.86748  0.39937  0.40578  1.0000
  H   H54       1.0  0.61594  0.36571  0.40879  1.0000
  H   H55       1.0  0.64232  0.25163  0.41503  1.0000
  H   H56       1.0  0.75863  0.41093  0.37965  1.0000
  C   C82       1.0  0.48195  0.51782  0.41684  1.0000
  C   C83       1.0  0.46456  0.53690  0.41264  1.0000
  H   H57       1.0  0.45439  0.54080  0.47018  1.0000
  C   C84       1.0  0.54887  0.45577  0.34059  1.0000
  C   C85       1.0  0.53457  0.46058  0.42044  1.0000
  C   C86       1.0  0.51712  0.47967  0.42076  1.0000
  C   C87       1.0  0.50294  0.48475  0.50010  1.0000
  C   C88       1.0  0.48553  0.50368  0.49817  1.0000
  H   H58       1.0  0.50512  0.47468  0.55983  1.0000
  H   H59       1.0  0.47544  0.50699  0.55655  1.0000
  H   H60       1.0  0.53733  0.45049  0.47955  1.0000
  C   C89       1.0  0.48984  0.96518  0.42018  1.0000
  C   C90       1.0  0.47059  0.92870  0.41565  1.0000
  H   H61       1.0  0.46611  0.91451  0.47328  1.0000
  C   C91       1.0  0.55292  0.09433  0.34500  1.0000
  C   C92       1.0  0.54745  0.07509  0.42494  1.0000
  C   C93       1.0  0.52828  0.03853  0.42482  1.0000
  C   C94       1.0  0.52244  0.01913  0.50429  1.0000
  C   C95       1.0  0.50334  0.98277  0.50201  1.0000
  H   H62       1.0  0.53203  0.03130  0.56440  1.0000
  H   H63       1.0  0.49944  0.96928  0.56051  1.0000
  H   H64       1.0  0.55704  0.08786  0.48442  1.0000
  C   C96       1.0  0.91385  0.46145  0.33675  1.0000
  C   C97       1.0  0.93209  0.46314  0.41614  1.0000
  C   C98       1.0  0.96862  0.48014  0.41765  1.0000
  C   C99       1.0  0.98707  0.48220  0.49655  1.0000
  H   H65       1.0  0.97422  0.47131  0.55510  1.0000
  H   H66       1.0  0.91866  0.45248  0.47420  1.0000
