data_image0
_chemical_formula_structural       CNCOCH3CNCOCH3CNCOCH3NC2OCH3NC2OCH3NC2OCH3NC2OCH3NC2OCH3NC2OCH3NC18H12NC18H12NC18H12NC18H12NC18H12NC18H12NC2OCH3NC2OCH3NC2OCH3CNCOCH3CNCOCH3CNCOCH3CNCOCH3CNCOCH3CNCOCH3
_chemical_formula_sum              "C162 N24 O18 H126"
_cell_length_a       52.5121
_cell_length_b       52.5122
_cell_length_c       14.9066
_cell_angle_alpha    90
_cell_angle_beta     90
_cell_angle_gamma    120

_space_group_name_H-M_alt    "P 1"
_space_group_IT_number       1

loop_
  _space_group_symop_operation_xyz
  'x, y, z'

loop_
  _atom_site_type_symbol
  _atom_site_label
  _atom_site_symmetry_multiplicity
  _atom_site_fract_x
  _atom_site_fract_y
  _atom_site_fract_z
  _atom_site_occupancy
  C   C1        1.0  0.97393  0.48640  0.33320  1.0000
  N   N1        1.0  0.02188  0.50825  0.26674  1.0000
  C   C2        1.0  0.99216  0.49301  0.25630  1.0000
  O   O1        1.0  0.98191  0.48577  0.17049  1.0000
  C   C3        1.0  0.97888  0.50840  0.12593  1.0000
  H   H1        1.0  0.00015  0.52848  0.11834  1.0000
  H   H2        1.0  0.96372  0.51340  0.16166  1.0000
  H   H3        1.0  0.96990  0.50047  0.05923  1.0000
  C   C4        1.0  0.52142  0.48910  0.33322  1.0000
  N   N2        1.0  0.49957  0.51520  0.26674  1.0000
  C   C5        1.0  0.51482  0.50072  0.25632  1.0000
  O   O2        1.0  0.52207  0.49771  0.17051  1.0000
  C   C6        1.0  0.49945  0.47205  0.12593  1.0000
  H   H4        1.0  0.47937  0.47324  0.11832  1.0000
  H   H5        1.0  0.49445  0.45190  0.16167  1.0000
  H   H6        1.0  0.50739  0.47102  0.05924  1.0000
  C   C7        1.0  0.51871  0.03387  0.33322  1.0000
  N   N3        1.0  0.49263  0.98593  0.26674  1.0000
  C   C8        1.0  0.50709  0.01564  0.25632  1.0000
  O   O3        1.0  0.51010  0.02591  0.17052  1.0000
  C   C9        1.0  0.53576  0.02895  0.12592  1.0000
  H   H7        1.0  0.53457  0.00768  0.11830  1.0000
  H   H8        1.0  0.55591  0.04411  0.16164  1.0000
  H   H9        1.0  0.53679  0.03793  0.05924  1.0000
  N   N4        1.0  0.29453  0.55125  0.26199  1.0000
  C   C10       1.0  0.26891  0.55091  0.24550  1.0000
  C   C11       1.0  0.25193  0.55114  0.31926  1.0000
  O   O4        1.0  0.26187  0.55144  0.15756  1.0000
  C   C12       1.0  0.24509  0.52262  0.11891  1.0000
  H   H10       1.0  0.24044  0.52516  0.04924  1.0000
  H   H11       1.0  0.22413  0.50958  0.15366  1.0000
  H   H12       1.0  0.25739  0.51089  0.11973  1.0000
  N   N5        1.0  0.45664  0.74489  0.26196  1.0000
  C   C13       1.0  0.45699  0.71961  0.24545  1.0000
  C   C14       1.0  0.45678  0.70240  0.31920  1.0000
  O   O5        1.0  0.45645  0.71205  0.15751  1.0000
  C   C15       1.0  0.48526  0.72408  0.11883  1.0000
  H   H13       1.0  0.48273  0.71690  0.04916  1.0000
  H   H14       1.0  0.49831  0.71616  0.15356  1.0000
  H   H15       1.0  0.49700  0.74811  0.11967  1.0000
  N   N6        1.0  0.26295  0.71330  0.26201  1.0000
  C   C16       1.0  0.28823  0.73892  0.24550  1.0000
  C   C17       1.0  0.30546  0.75591  0.31924  1.0000
  O   O6        1.0  0.29579  0.74595  0.15755  1.0000
  C   C18       1.0  0.28376  0.76274  0.11892  1.0000
  H   H16       1.0  0.29094  0.76739  0.04924  1.0000
  H   H17       1.0  0.29169  0.78370  0.15366  1.0000
  H   H18       1.0  0.25973  0.75046  0.11978  1.0000
  N   N7        1.0  0.71622  0.45519  0.27638  1.0000
  C   C19       1.0  0.74184  0.45554  0.25999  1.0000
  C   C20       1.0  0.75811  0.45400  0.33372  1.0000
  O   O7        1.0  0.74968  0.45654  0.17213  1.0000
  C   C21       1.0  0.76692  0.48600  0.13841  1.0000
  H   H19       1.0  0.77226  0.48471  0.06850  1.0000
  H   H20       1.0  0.78752  0.49834  0.17548  1.0000
  H   H21       1.0  0.75468  0.49778  0.14097  1.0000
  N   N8        1.0  0.55270  0.26262  0.27636  1.0000
  C   C22       1.0  0.55236  0.28789  0.25997  1.0000
  C   C23       1.0  0.55388  0.30569  0.33371  1.0000
  O   O8        1.0  0.55136  0.29473  0.17211  1.0000
  C   C24       1.0  0.52189  0.28250  0.13838  1.0000
  H   H22       1.0  0.52319  0.28914  0.06847  1.0000
  H   H23       1.0  0.50954  0.29076  0.17544  1.0000
  H   H24       1.0  0.51012  0.25848  0.14092  1.0000
  N   N9        1.0  0.74520  0.29161  0.27634  1.0000
  C   C25       1.0  0.71993  0.26598  0.25997  1.0000
  C   C26       1.0  0.70214  0.24971  0.33371  1.0000
  O   O9        1.0  0.71310  0.25813  0.17211  1.0000
  C   C27       1.0  0.72533  0.24090  0.13840  1.0000
  H   H25       1.0  0.71869  0.23555  0.06850  1.0000
  H   H26       1.0  0.71708  0.22030  0.17549  1.0000
  H   H27       1.0  0.74935  0.25315  0.14094  1.0000
  N   N10       1.0  0.16295  0.58252  0.33429  1.0000
  C   C28       1.0  0.17950  0.61356  0.34663  1.0000
  C   C29       1.0  0.13168  0.56675  0.33763  1.0000
  C   C30       1.0  0.17988  0.56841  0.32144  1.0000
  C   C31       1.0  0.19819  0.57538  0.24536  1.0000
  C   C32       1.0  0.22116  0.56890  0.24284  1.0000
  C   C33       1.0  0.22623  0.55427  0.31474  1.0000
  C   C34       1.0  0.20639  0.54568  0.38818  1.0000
  C   C35       1.0  0.18389  0.55285  0.39200  1.0000
  C   C36       1.0  0.18327  0.63270  0.27502  1.0000
  C   C37       1.0  0.20578  0.66238  0.27723  1.0000
  C   C38       1.0  0.22564  0.67402  0.35046  1.0000
  C   C39       1.0  0.22078  0.65482  0.42359  1.0000
  C   C40       1.0  0.19797  0.62529  0.42222  1.0000
  C   C41       1.0  0.11481  0.56547  0.26234  1.0000
  C   C42       1.0  0.08381  0.54989  0.26580  1.0000
  C   C43       1.0  0.06828  0.53483  0.34441  1.0000
  C   C44       1.0  0.08563  0.53590  0.41890  1.0000
  C   C45       1.0  0.11662  0.55178  0.41605  1.0000
  H   H28       1.0  0.20858  0.67499  0.22174  1.0000
  H   H29       1.0  0.17124  0.62459  0.21760  1.0000
  H   H30       1.0  0.19673  0.61162  0.47303  1.0000
  H   H31       1.0  0.23532  0.66115  0.47564  1.0000
  H   H32       1.0  0.19685  0.58798  0.19531  1.0000
  H   H33       1.0  0.23561  0.57749  0.19078  1.0000
  H   H34       1.0  0.12506  0.57581  0.20415  1.0000
  H   H35       1.0  0.07264  0.54990  0.20957  1.0000
  H   H36       1.0  0.07602  0.52444  0.47605  1.0000
  H   H37       1.0  0.12817  0.55223  0.47177  1.0000
  H   H38       1.0  0.17195  0.54860  0.44969  1.0000
  H   H39       1.0  0.20913  0.53552  0.44287  1.0000
  N   N11       1.0  0.42532  0.58201  0.33419  1.0000
  C   C46       1.0  0.39428  0.56753  0.34655  1.0000
  C   C47       1.0  0.44108  0.56650  0.33757  1.0000
  C   C48       1.0  0.43945  0.61306  0.32146  1.0000
  C   C49       1.0  0.43244  0.62439  0.24544  1.0000
  C   C50       1.0  0.43900  0.65386  0.24275  1.0000
  C   C51       1.0  0.45362  0.67356  0.31467  1.0000
  C   C52       1.0  0.46216  0.66229  0.38820  1.0000
  C   C53       1.0  0.45503  0.63263  0.39198  1.0000
  C   C54       1.0  0.37513  0.55215  0.27494  1.0000
  C   C55       1.0  0.34547  0.54503  0.27712  1.0000
  C   C56       1.0  0.33382  0.55324  0.35037  1.0000
  C   C57       1.0  0.35302  0.56756  0.42353  1.0000
  C   C58       1.0  0.38255  0.57427  0.42214  1.0000
  C   C59       1.0  0.44235  0.55091  0.26229  1.0000
  C   C60       1.0  0.45793  0.53548  0.26577  1.0000
  C   C61       1.0  0.47298  0.53501  0.34440  1.0000
  C   C62       1.0  0.47192  0.55130  0.41886  1.0000
  C   C63       1.0  0.45605  0.56641  0.41599  1.0000
  H   H40       1.0  0.33284  0.53516  0.22171  1.0000
  H   H41       1.0  0.38324  0.54822  0.21754  1.0000
  H   H42       1.0  0.39622  0.58670  0.47295  1.0000
  H   H43       1.0  0.34669  0.57576  0.47560  1.0000
  H   H44       1.0  0.41994  0.61047  0.19520  1.0000
  H   H45       1.0  0.43046  0.65975  0.19060  1.0000
  H   H46       1.0  0.43202  0.55082  0.20409  1.0000
  H   H47       1.0  0.45792  0.52429  0.20955  1.0000
  H   H48       1.0  0.48338  0.55315  0.47602  1.0000
  H   H49       1.0  0.45560  0.57752  0.47170  1.0000
  H   H50       1.0  0.45921  0.62494  0.44978  1.0000
  H   H51       1.0  0.47230  0.67519  0.44290  1.0000
  N   N12       1.0  0.42582  0.84485  0.33415  1.0000
  C   C64       1.0  0.44032  0.82830  0.34651  1.0000
  C   C65       1.0  0.44132  0.87612  0.33754  1.0000
  C   C66       1.0  0.39477  0.82791  0.32145  1.0000
  C   C67       1.0  0.38346  0.80960  0.24540  1.0000
  C   C68       1.0  0.35400  0.78665  0.24283  1.0000
  C   C69       1.0  0.33429  0.78160  0.31469  1.0000
  C   C70       1.0  0.34556  0.80143  0.38818  1.0000
  C   C71       1.0  0.37522  0.82394  0.39200  1.0000
  C   C72       1.0  0.45570  0.82456  0.27489  1.0000
  C   C73       1.0  0.46284  0.80203  0.27709  1.0000
  C   C74       1.0  0.45463  0.78217  0.35034  1.0000
  C   C75       1.0  0.44031  0.78705  0.42353  1.0000
  C   C76       1.0  0.43359  0.80986  0.42216  1.0000
  C   C77       1.0  0.45691  0.89300  0.26225  1.0000
  C   C78       1.0  0.47234  0.92400  0.26574  1.0000
  C   C79       1.0  0.47282  0.93952  0.34439  1.0000
  C   C80       1.0  0.45655  0.92217  0.41886  1.0000
  C   C81       1.0  0.44143  0.89118  0.41598  1.0000
  H   H52       1.0  0.47271  0.79927  0.22168  1.0000
  H   H53       1.0  0.45963  0.83660  0.21748  1.0000
  H   H54       1.0  0.42116  0.81110  0.47297  1.0000
  H   H55       1.0  0.43213  0.77252  0.47561  1.0000
  H   H56       1.0  0.39738  0.81103  0.19513  1.0000
  H   H57       1.0  0.34809  0.77228  0.19054  1.0000
  H   H58       1.0  0.45699  0.88275  0.20403  1.0000
  H   H59       1.0  0.48351  0.93517  0.20951  1.0000
  H   H60       1.0  0.45471  0.93177  0.47603  1.0000
  H   H61       1.0  0.43034  0.87962  0.47169  1.0000
  H   H62       1.0  0.38292  0.83582  0.44978  1.0000
  H   H63       1.0  0.33267  0.79866  0.44292  1.0000
  N   N13       1.0  0.84718  0.42273  0.34477  1.0000
  C   C82       1.0  0.83005  0.39162  0.35663  1.0000
  C   C83       1.0  0.87856  0.43833  0.34160  1.0000
  C   C84       1.0  0.83041  0.43708  0.33332  1.0000
  C   C85       1.0  0.81271  0.43126  0.25629  1.0000
  C   C86       1.0  0.78967  0.43766  0.25471  1.0000
  C   C87       1.0  0.78382  0.45092  0.32889  1.0000
  C   C88       1.0  0.80293  0.45818  0.40384  1.0000
  C   C89       1.0  0.82550  0.45111  0.40654  1.0000
  C   C90       1.0  0.82424  0.37246  0.28337  1.0000
  C   C91       1.0  0.80128  0.34302  0.28700  1.0000
  C   C92       1.0  0.78254  0.33158  0.36287  1.0000
  C   C93       1.0  0.78931  0.35084  0.43714  1.0000
  C   C94       1.0  0.81280  0.38007  0.43466  1.0000
  C   C95       1.0  0.89390  0.43465  0.26967  1.0000
  C   C96       1.0  0.92490  0.44988  0.26708  1.0000
  C   C97       1.0  0.94217  0.47034  0.33461  1.0000
  C   C98       1.0  0.92642  0.47367  0.40691  1.0000
  C   C99       1.0  0.89543  0.45794  0.41064  1.0000
  H   H64       1.0  0.79729  0.33055  0.23042  1.0000
  H   H65       1.0  0.83495  0.38039  0.22390  1.0000
  H   H66       1.0  0.81538  0.39378  0.48691  1.0000
  H   H67       1.0  0.77580  0.34488  0.49164  1.0000
  H   H68       1.0  0.81470  0.41974  0.20409  1.0000
  H   H69       1.0  0.77581  0.43011  0.20102  1.0000
  H   H70       1.0  0.88262  0.42067  0.21835  1.0000
  H   H71       1.0  0.93453  0.44508  0.21549  1.0000
  H   H72       1.0  0.93741  0.48786  0.45834  1.0000
  H   H73       1.0  0.88523  0.46092  0.46462  1.0000
  H   H74       1.0  0.83666  0.45407  0.46526  1.0000
  H   H75       1.0  0.79951  0.46715  0.46030  1.0000
  N   N14       1.0  0.58511  0.42602  0.34483  1.0000
  C   C100      1.0  0.61621  0.44002  0.35670  1.0000
  C   C101      1.0  0.56950  0.44180  0.34163  1.0000
  C   C102      1.0  0.57077  0.39491  0.33330  1.0000
  C   C103      1.0  0.57660  0.38303  0.25630  1.0000
  C   C104      1.0  0.57022  0.35359  0.25471  1.0000
  C   C105      1.0  0.55696  0.33449  0.32888  1.0000
  C   C106      1.0  0.54971  0.34633  0.40384  1.0000
  C   C107      1.0  0.55675  0.37596  0.40651  1.0000
  C   C108      1.0  0.63538  0.45340  0.28347  1.0000
  C   C109      1.0  0.66481  0.45985  0.28707  1.0000
  C   C110      1.0  0.67627  0.45259  0.36298  1.0000
  C   C111      1.0  0.65700  0.44008  0.43723  1.0000
  C   C112      1.0  0.62777  0.43433  0.43473  1.0000
  C   C113      1.0  0.57320  0.46084  0.26974  1.0000
  C   C114      1.0  0.55797  0.47662  0.26718  1.0000
  C   C115      1.0  0.53749  0.47340  0.33464  1.0000
  C   C116      1.0  0.53414  0.45431  0.40689  1.0000
  C   C117      1.0  0.54987  0.43904  0.41063  1.0000
  H   H76       1.0  0.67727  0.46830  0.23046  1.0000
  H   H77       1.0  0.62744  0.45610  0.22390  1.0000
  H   H78       1.0  0.61405  0.42318  0.48696  1.0000
  H   H79       1.0  0.66296  0.43253  0.49172  1.0000
  H   H80       1.0  0.58813  0.39655  0.20410  1.0000
  H   H81       1.0  0.57777  0.34729  0.20102  1.0000
  H   H82       1.0  0.58719  0.46356  0.21845  1.0000
  H   H83       1.0  0.56278  0.49106  0.21558  1.0000
  H   H84       1.0  0.51992  0.45108  0.45828  1.0000
  H   H85       1.0  0.54687  0.42585  0.46457  1.0000
  H   H86       1.0  0.55378  0.38416  0.46522  1.0000
  H   H87       1.0  0.54071  0.33394  0.46027  1.0000
  N   N15       1.0  0.58181  0.16063  0.34481  1.0000
  C   C118      1.0  0.56783  0.17775  0.35670  1.0000
  C   C119      1.0  0.56602  0.12925  0.34164  1.0000
  C   C120      1.0  0.61293  0.17740  0.33332  1.0000
  C   C121      1.0  0.62480  0.19508  0.25627  1.0000
  C   C122      1.0  0.65423  0.21815  0.25473  1.0000
  C   C123      1.0  0.67334  0.22399  0.32888  1.0000
  C   C124      1.0  0.66149  0.20491  0.40386  1.0000
  C   C125      1.0  0.63187  0.18229  0.40651  1.0000
  C   C126      1.0  0.55442  0.18353  0.28350  1.0000
  C   C127      1.0  0.54799  0.20651  0.28710  1.0000
  C   C128      1.0  0.55528  0.22526  0.36297  1.0000
  C   C129      1.0  0.56780  0.21850  0.43722  1.0000
  C   C130      1.0  0.57354  0.19501  0.43471  1.0000
  C   C131      1.0  0.54699  0.11390  0.26972  1.0000
  C   C132      1.0  0.53121  0.08291  0.26716  1.0000
  C   C133      1.0  0.53441  0.06564  0.33466  1.0000
  C   C134      1.0  0.55349  0.08138  0.40693  1.0000
  C   C135      1.0  0.56877  0.11238  0.41066  1.0000
  H   H88       1.0  0.53954  0.21053  0.23050  1.0000
  H   H89       1.0  0.55171  0.17288  0.22394  1.0000
  H   H90       1.0  0.58470  0.19244  0.48692  1.0000
  H   H91       1.0  0.57537  0.23203  0.49165  1.0000
  H   H92       1.0  0.61125  0.19311  0.20418  1.0000
  H   H93       1.0  0.66053  0.23201  0.20105  1.0000
  H   H94       1.0  0.54430  0.12519  0.21841  1.0000
  H   H95       1.0  0.51679  0.07328  0.21554  1.0000
  H   H96       1.0  0.55671  0.07039  0.45834  1.0000
  H   H97       1.0  0.58195  0.12257  0.46463  1.0000
  H   H98       1.0  0.62366  0.17113  0.46524  1.0000
  H   H99       1.0  0.67390  0.20829  0.46025  1.0000
  N   N16       1.0  0.98873  0.49757  0.41156  1.0000
  C   C136      1.0  0.01848  0.51275  0.42250  1.0000
  C   C137      1.0  0.03657  0.51858  0.34572  1.0000
  O   O10       1.0  0.02956  0.52506  0.50456  1.0000
  C   C138      1.0  0.02140  0.50434  0.57712  1.0000
  H   H100      1.0  0.99772  0.49295  0.58912  1.0000
  H   H101      1.0  0.03244  0.51645  0.63775  1.0000
  H   H102      1.0  0.02830  0.48820  0.56419  1.0000
  N   N17       1.0  0.51025  0.49272  0.41157  1.0000
  C   C139      1.0  0.49507  0.50729  0.42250  1.0000
  C   C140      1.0  0.48924  0.51955  0.34571  1.0000
  O   O11       1.0  0.48274  0.50606  0.50454  1.0000
  C   C141      1.0  0.50345  0.51861  0.57713  1.0000
  H   H103      1.0  0.51484  0.50632  0.58914  1.0000
  H   H104      1.0  0.49133  0.51753  0.63775  1.0000
  H   H105      1.0  0.51960  0.54165  0.56421  1.0000
  N   N18       1.0  0.51509  0.01907  0.41158  1.0000
  C   C142      1.0  0.50053  0.98932  0.42250  1.0000
  C   C143      1.0  0.48829  0.97123  0.34571  1.0000
  O   O12       1.0  0.50176  0.97824  0.50455  1.0000
  C   C144      1.0  0.48920  0.98638  0.57712  1.0000
  H   H106      1.0  0.50148  0.01007  0.58913  1.0000
  H   H107      1.0  0.49028  0.97535  0.63775  1.0000
  H   H108      1.0  0.46615  0.97948  0.56419  1.0000
  C   C145      1.0  0.30521  0.55041  0.34454  1.0000
  N   N19       1.0  0.26220  0.54937  0.40164  1.0000
  C   C146      1.0  0.28707  0.54824  0.41799  1.0000
  O   O13       1.0  0.29344  0.54597  0.50548  1.0000
  C   C147      1.0  0.28077  0.51603  0.53531  1.0000
  H   H109      1.0  0.28702  0.51629  0.60518  1.0000
  H   H110      1.0  0.28903  0.50404  0.49636  1.0000
  H   H111      1.0  0.25677  0.50452  0.53166  1.0000
  C   C148      1.0  0.45748  0.75640  0.34451  1.0000
  N   N20       1.0  0.45853  0.71444  0.40158  1.0000
  C   C149      1.0  0.45966  0.74044  0.41795  1.0000
  O   O14       1.0  0.46191  0.74906  0.50545  1.0000
  C   C150      1.0  0.49184  0.76633  0.53530  1.0000
  H   H112      1.0  0.49158  0.77232  0.60517  1.0000
  H   H113      1.0  0.50383  0.78659  0.49636  1.0000
  H   H114      1.0  0.50337  0.75386  0.53164  1.0000
  C   C151      1.0  0.25144  0.70262  0.34457  1.0000
  N   N21       1.0  0.29341  0.74564  0.40163  1.0000
  C   C152      1.0  0.26741  0.72077  0.41800  1.0000
  O   O15       1.0  0.25878  0.71441  0.50550  1.0000
  C   C153      1.0  0.24152  0.72709  0.53533  1.0000
  H   H115      1.0  0.23553  0.72084  0.60520  1.0000
  H   H116      1.0  0.22127  0.71882  0.49638  1.0000
  H   H117      1.0  0.25401  0.75109  0.53166  1.0000
  C   C154      1.0  0.70474  0.45482  0.35868  1.0000
  N   N22       1.0  0.74712  0.45454  0.41609  1.0000
  C   C155      1.0  0.72222  0.45564  0.43245  1.0000
  O   O16       1.0  0.71540  0.45663  0.52031  1.0000
  C   C156      1.0  0.72837  0.48607  0.55485  1.0000
  H   H118      1.0  0.72170  0.48478  0.62472  1.0000
  H   H119      1.0  0.72074  0.49902  0.51811  1.0000
  H   H120      1.0  0.75238  0.49723  0.55263  1.0000
  C   C157      1.0  0.55307  0.25150  0.35867  1.0000
  N   N23       1.0  0.55333  0.29415  0.41608  1.0000
  C   C158      1.0  0.55223  0.26815  0.43243  1.0000
  O   O17       1.0  0.55122  0.26033  0.52029  1.0000
  C   C159      1.0  0.52178  0.24386  0.55479  1.0000
  H   H121      1.0  0.52306  0.23847  0.62465  1.0000
  H   H122      1.0  0.50884  0.22329  0.51803  1.0000
  H   H123      1.0  0.51062  0.25672  0.55256  1.0000
  C   C160      1.0  0.75632  0.30310  0.35863  1.0000
  N   N24       1.0  0.71366  0.26071  0.41607  1.0000
  C   C161      1.0  0.73966  0.28562  0.43241  1.0000
  O   O18       1.0  0.74747  0.29245  0.52027  1.0000
  C   C162      1.0  0.76395  0.27949  0.55482  1.0000
  H   H124      1.0  0.76933  0.28617  0.62468  1.0000
  H   H125      1.0  0.78453  0.28712  0.51809  1.0000
  H   H126      1.0  0.75111  0.25548  0.55262  1.0000
