data_image0
_chemical_formula_structural       H2C6H6N2C6H6N2C6H3C6H3C4H2C12H5CNC2NHN2C12H5CNC2NHN2H2C6H6N2C6H6N2C6H3C6H3C4H2C12H5CNC2NHN2C12H5CNC2NHN2
_chemical_formula_sum              "H68 C116 N24"
_cell_length_a       29.7912
_cell_length_b       36.8114
_cell_length_c       15.0897
_cell_angle_alpha    93.6966
_cell_angle_beta     87.7172
_cell_angle_gamma    88.6365

_space_group_name_H-M_alt    "P 1"
_space_group_IT_number       1

loop_
  _space_group_symop_operation_xyz
  'x, y, z'

loop_
  _atom_site_type_symbol
  _atom_site_label
  _atom_site_symmetry_multiplicity
  _atom_site_fract_x
  _atom_site_fract_y
  _atom_site_fract_z
  _atom_site_occupancy
  H   H1        1.0  0.07836  0.11593  0.29599  1.0000
  H   H2        1.0  0.93657  0.40496  0.29669  1.0000
  C   C1        1.0  0.35259  0.27185  0.32909  1.0000
  C   C2        1.0  0.20706  0.40497  0.36746  1.0000
  C   C3        1.0  0.23158  0.37173  0.35946  1.0000
  C   C4        1.0  0.37618  0.30488  0.33071  1.0000
  C   C5        1.0  0.42339  0.30496  0.32990  1.0000
  C   C6        1.0  0.44859  0.27204  0.32774  1.0000
  H   H3        1.0  0.22433  0.42862  0.37037  1.0000
  H   H4        1.0  0.26590  0.37267  0.35718  1.0000
  H   H5        1.0  0.35931  0.32946  0.33219  1.0000
  H   H6        1.0  0.43926  0.32936  0.33109  1.0000
  H   H7        1.0  0.10805  0.17449  0.30384  1.0000
  H   H8        1.0  0.14696  0.23004  0.31070  1.0000
  N   N1        1.0  0.27998  0.30344  0.33964  1.0000
  N   N2        1.0  0.49288  0.27412  0.32749  1.0000
  C   C7        1.0  0.66066  0.25095  0.32915  1.0000
  C   C8        1.0  0.80479  0.11985  0.36703  1.0000
  C   C9        1.0  0.78054  0.15265  0.35925  1.0000
  C   C10       1.0  0.63700  0.21801  0.33077  1.0000
  C   C11       1.0  0.58982  0.21788  0.32993  1.0000
  C   C12       1.0  0.56471  0.25068  0.32774  1.0000
  H   H9        1.0  0.78746  0.09632  0.36967  1.0000
  H   H10       1.0  0.74632  0.15154  0.35686  1.0000
  H   H11       1.0  0.65380  0.19351  0.33227  1.0000
  H   H12       1.0  0.57390  0.19355  0.33112  1.0000
  H   H13       1.0  0.90639  0.34683  0.30430  1.0000
  H   H14       1.0  0.86709  0.29170  0.31112  1.0000
  N   N3        1.0  0.73284  0.21992  0.33972  1.0000
  N   N4        1.0  0.52042  0.24859  0.32749  1.0000
  C   C13       1.0  0.02987  0.51618  0.33847  1.0000
  C   C14       1.0  0.06344  0.49045  0.35916  1.0000
  C   C15       1.0  0.10967  0.49839  0.35767  1.0000
  C   C16       1.0  0.12267  0.03399  0.34009  1.0000
  C   C17       1.0  0.09060  0.06087  0.32027  1.0000
  C   C18       1.0  0.04502  0.05112  0.31775  1.0000
  H   H15       1.0  0.05414  0.46531  0.37693  1.0000
  H   H16       1.0  0.02218  0.07012  0.29944  1.0000
  H   H17       1.0  0.15601  0.04020  0.34015  1.0000
  C   C19       1.0  0.98296  0.50706  0.33843  1.0000
  C   C20       1.0  0.96906  0.47095  0.31811  1.0000
  C   C21       1.0  0.92336  0.46135  0.32050  1.0000
  C   C22       1.0  0.89047  0.48934  0.33985  1.0000
  C   C23       1.0  0.90273  0.02592  0.35711  1.0000
  C   C24       1.0  0.94891  0.03391  0.35866  1.0000
  H   H18       1.0  0.99268  0.45093  0.30013  1.0000
  H   H19       1.0  0.85713  0.48315  0.33979  1.0000
  H   H20       1.0  0.95746  0.06003  0.37616  1.0000
  C   C25       1.0  0.86865  0.05325  0.36838  1.0000
  C   C26       1.0  0.10289  0.09681  0.30539  1.0000
  C   C27       1.0  0.14329  0.47173  0.36937  1.0000
  C   C28       1.0  0.91166  0.42460  0.30584  1.0000
  H   H21       1.0  0.83581  0.04593  0.36569  1.0000
  H   H22       1.0  0.17626  0.47885  0.36637  1.0000
  C   C29       1.0  0.20961  0.33798  0.35214  1.0000
  C   C30       1.0  0.21300  0.20657  0.31358  1.0000
  C   C31       1.0  0.16195  0.33893  0.35578  1.0000
  C   C32       1.0  0.13739  0.37214  0.36461  1.0000
  C   C33       1.0  0.15962  0.40551  0.36927  1.0000
  C   C34       1.0  0.42552  0.23891  0.32607  1.0000
  C   C35       1.0  0.37830  0.23887  0.32659  1.0000
  C   C36       1.0  0.23635  0.17248  0.31112  1.0000
  C   C37       1.0  0.21312  0.13964  0.30812  1.0000
  C   C38       1.0  0.16591  0.13973  0.30549  1.0000
  C   C39       1.0  0.14232  0.17340  0.30470  1.0000
  C   C40       1.0  0.16552  0.20626  0.30947  1.0000
  H   H23       1.0  0.10302  0.37178  0.36494  1.0000
  H   H24       1.0  0.36298  0.21428  0.32560  1.0000
  H   H25       1.0  0.44292  0.21457  0.32449  1.0000
  H   H26       1.0  0.27057  0.17106  0.31443  1.0000
  H   H27       1.0  0.23101  0.11558  0.30917  1.0000
  C   C41       1.0  0.23614  0.23965  0.32168  1.0000
  N   N5        1.0  0.28177  0.24039  0.32159  1.0000
  C   C42       1.0  0.30472  0.27184  0.32997  1.0000
  C   C43       1.0  0.23433  0.30463  0.34109  1.0000
  N   N6        1.0  0.21351  0.27225  0.33162  1.0000
  H   H28       1.0  0.14432  0.31543  0.35097  1.0000
  N   N7        1.0  0.14607  0.10715  0.30828  1.0000
  N   N8        1.0  0.13352  0.43609  0.37002  1.0000
  C   C44       1.0  0.80273  0.18605  0.35220  1.0000
  C   C45       1.0  0.80096  0.31539  0.31386  1.0000
  C   C46       1.0  0.85023  0.18535  0.35595  1.0000
  C   C47       1.0  0.87450  0.15263  0.36460  1.0000
  C   C48       1.0  0.85216  0.11947  0.36890  1.0000
  C   C49       1.0  0.58785  0.28372  0.32606  1.0000
  C   C50       1.0  0.63505  0.28379  0.32662  1.0000
  C   C51       1.0  0.77779  0.34937  0.31131  1.0000
  C   C52       1.0  0.80121  0.38202  0.30828  1.0000
  C   C53       1.0  0.84854  0.38175  0.30579  1.0000
  C   C54       1.0  0.87210  0.34800  0.30509  1.0000
  C   C55       1.0  0.84862  0.31544  0.30984  1.0000
  H   H29       1.0  0.90885  0.15307  0.36495  1.0000
  H   H30       1.0  0.65041  0.30833  0.32562  1.0000
  H   H31       1.0  0.57051  0.30798  0.32447  1.0000
  H   H32       1.0  0.74343  0.35101  0.31456  1.0000
  H   H33       1.0  0.78333  0.40616  0.30931  1.0000
  C   C56       1.0  0.77743  0.28276  0.32193  1.0000
  N   N9        1.0  0.73180  0.28202  0.32178  1.0000
  C   C57       1.0  0.70849  0.25101  0.33008  1.0000
  C   C58       1.0  0.77842  0.21881  0.34125  1.0000
  N   N10       1.0  0.79962  0.25069  0.33186  1.0000
  H   H34       1.0  0.86802  0.20864  0.35133  1.0000
  N   N11       1.0  0.86834  0.41445  0.30856  1.0000
  N   N12       1.0  0.87832  0.08894  0.36940  1.0000
  H   H35       1.0  0.07803  0.61599  0.29619  1.0000
  H   H36       1.0  0.93685  0.90492  0.29692  1.0000
  C   C59       1.0  0.35258  0.77171  0.32905  1.0000
  C   C60       1.0  0.20734  0.90487  0.36754  1.0000
  C   C61       1.0  0.23177  0.87160  0.35948  1.0000
  C   C62       1.0  0.37614  0.80477  0.33068  1.0000
  C   C63       1.0  0.42335  0.80489  0.32989  1.0000
  C   C64       1.0  0.44859  0.77199  0.32774  1.0000
  H   H37       1.0  0.22466  0.92849  0.37048  1.0000
  H   H38       1.0  0.26610  0.87249  0.35720  1.0000
  H   H39       1.0  0.35925  0.82933  0.33215  1.0000
  H   H40       1.0  0.43919  0.82930  0.33109  1.0000
  H   H41       1.0  0.10788  0.67453  0.30387  1.0000
  H   H42       1.0  0.14691  0.73002  0.31068  1.0000
  N   N13       1.0  0.28001  0.80328  0.33959  1.0000
  N   N14       1.0  0.49287  0.77411  0.32751  1.0000
  C   C65       1.0  0.66067  0.75106  0.32911  1.0000
  C   C66       1.0  0.80453  0.61994  0.36709  1.0000
  C   C67       1.0  0.78036  0.65276  0.35926  1.0000
  C   C68       1.0  0.63704  0.71810  0.33074  1.0000
  C   C69       1.0  0.58986  0.71794  0.32992  1.0000
  C   C70       1.0  0.56472  0.75073  0.32774  1.0000
  H   H43       1.0  0.78715  0.59643  0.36975  1.0000
  H   H44       1.0  0.74614  0.65170  0.35686  1.0000
  H   H45       1.0  0.65386  0.69361  0.33224  1.0000
  H   H46       1.0  0.57397  0.69360  0.33112  1.0000
  H   H47       1.0  0.90655  0.84681  0.30436  1.0000
  H   H48       1.0  0.86715  0.79173  0.31112  1.0000
  N   N15       1.0  0.73282  0.72006  0.33968  1.0000
  N   N16       1.0  0.52044  0.74860  0.32749  1.0000
  C   C71       1.0  0.03026  0.01614  0.33843  1.0000
  C   C72       1.0  0.06383  0.99043  0.35921  1.0000
  C   C73       1.0  0.11007  0.99838  0.35775  1.0000
  C   C74       1.0  0.12228  0.53400  0.34007  1.0000
  C   C75       1.0  0.09022  0.56091  0.32037  1.0000
  C   C76       1.0  0.04463  0.55117  0.31789  1.0000
  H   H49       1.0  0.05453  0.96530  0.37704  1.0000
  H   H50       1.0  0.02179  0.57019  0.29966  1.0000
  H   H51       1.0  0.15562  0.54020  0.34011  1.0000
  C   C77       1.0  0.98334  0.00703  0.33843  1.0000
  C   C78       1.0  0.96943  0.97090  0.31826  1.0000
  C   C79       1.0  0.92372  0.96133  0.32062  1.0000
  C   C80       1.0  0.89085  0.98934  0.33985  1.0000
  C   C81       1.0  0.90234  0.52591  0.35720  1.0000
  C   C82       1.0  0.94851  0.53393  0.35877  1.0000
  H   H52       1.0  0.99304  0.95087  0.30037  1.0000
  H   H53       1.0  0.85750  0.98317  0.33979  1.0000
  H   H54       1.0  0.95706  0.56004  0.37636  1.0000
  C   C83       1.0  0.86826  0.55325  0.36851  1.0000
  C   C84       1.0  0.10254  0.59685  0.30553  1.0000
  C   C85       1.0  0.14368  0.97172  0.36951  1.0000
  C   C86       1.0  0.91197  0.92459  0.30602  1.0000
  H   H55       1.0  0.83541  0.54594  0.36580  1.0000
  H   H56       1.0  0.17665  0.97883  0.36651  1.0000
  C   C87       1.0  0.20972  0.83789  0.35213  1.0000
  C   C88       1.0  0.21291  0.70647  0.31357  1.0000
  C   C89       1.0  0.16206  0.83890  0.35577  1.0000
  C   C90       1.0  0.13758  0.87215  0.36465  1.0000
  C   C91       1.0  0.15990  0.90547  0.36936  1.0000
  C   C92       1.0  0.42556  0.73884  0.32606  1.0000
  C   C93       1.0  0.37833  0.73876  0.32655  1.0000
  C   C94       1.0  0.23618  0.67235  0.31112  1.0000
  C   C95       1.0  0.21288  0.63954  0.30814  1.0000
  C   C96       1.0  0.16567  0.63969  0.30554  1.0000
  C   C97       1.0  0.14214  0.67340  0.30473  1.0000
  C   C98       1.0  0.16542  0.70622  0.30947  1.0000
  H   H57       1.0  0.10321  0.87184  0.36499  1.0000
  H   H58       1.0  0.36304  0.71415  0.32556  1.0000
  H   H59       1.0  0.44299  0.71451  0.32449  1.0000
  H   H60       1.0  0.27040  0.67088  0.31443  1.0000
  H   H61       1.0  0.23071  0.61546  0.30921  1.0000
  C   C99       1.0  0.23611  0.73952  0.32165  1.0000
  N   N17       1.0  0.28175  0.74022  0.32155  1.0000
  C   C100      1.0  0.30472  0.77167  0.32992  1.0000
  C   C101      1.0  0.23436  0.80450  0.34106  1.0000
  N   N18       1.0  0.21351  0.77214  0.33159  1.0000
  H   H62       1.0  0.14438  0.81542  0.35093  1.0000
  N   N19       1.0  0.14574  0.60714  0.30834  1.0000
  N   N20       1.0  0.13387  0.93610  0.37014  1.0000
  C   C102      1.0  0.80264  0.68613  0.35218  1.0000
  C   C103      1.0  0.80105  0.81548  0.31385  1.0000
  C   C104      1.0  0.85014  0.68537  0.35594  1.0000
  C   C105      1.0  0.87432  0.65261  0.36464  1.0000
  C   C106      1.0  0.85190  0.61949  0.36898  1.0000
  C   C107      1.0  0.58783  0.78378  0.32606  1.0000
  C   C108      1.0  0.63503  0.78388  0.32659  1.0000
  C   C109      1.0  0.77794  0.84949  0.31132  1.0000
  C   C110      1.0  0.80142  0.88212  0.30832  1.0000
  C   C111      1.0  0.84875  0.88180  0.30586  1.0000
  C   C112      1.0  0.87225  0.84802  0.30515  1.0000
  C   C113      1.0  0.84871  0.81548  0.30985  1.0000
  H   H63       1.0  0.90867  0.65299  0.36499  1.0000
  H   H64       1.0  0.65036  0.80844  0.32558  1.0000
  H   H65       1.0  0.57047  0.80803  0.32446  1.0000
  H   H66       1.0  0.74358  0.85116  0.31456  1.0000
  H   H67       1.0  0.78358  0.90627  0.30935  1.0000
  C   C114      1.0  0.77747  0.78287  0.32190  1.0000
  N   N21       1.0  0.73183  0.78216  0.32174  1.0000
  C   C115      1.0  0.70851  0.75115  0.33004  1.0000
  C   C116      1.0  0.77841  0.71892  0.34121  1.0000
  N   N22       1.0  0.79963  0.75078  0.33183  1.0000
  H   H68       1.0  0.86798  0.70862  0.35130  1.0000
  N   N23       1.0  0.86863  0.91448  0.30866  1.0000
  N   N24       1.0  0.87797  0.58893  0.36951  1.0000
