data_image0
_chemical_formula_structural       C3N2O4C3N2O2CHC3H2CHC2NO2CHCNO2C6H3N3C6H3N3C3HCHC3H2C3N2O4CHCHC2HCHCHO2C3N2O4CHC3H2C3H2CHC3N2O4CHC3N2O4CHC6H3N3C4H2N2C4H2N2C6H3N3HCHC3H2CHC3N2O3CHC3N2O4C3H2CHC3H2CHC3N2O4CHCHC3H2CHC3H2CHOCNOC6H3N3C2HNC2HNC6H3N3C3H2CHOCHC3N2O4CHC3N2O3CHC4N2O4CHC3N2O4CHC3H2CHCNO2C3N2O3HC2NO2CHC3NO3CHC6H3N3C6H3N3C6H3N3C6H3N3C3H2CHC3H2CHC3N2O4CHOC2HCHC3H2CHCHC3H3
_chemical_formula_sum              "C216 N72 O72 H108"
_cell_length_a       60.8508
_cell_length_b       60.8508
_cell_length_c       14.7019
_cell_angle_alpha    90
_cell_angle_beta     90
_cell_angle_gamma    120

_space_group_name_H-M_alt    "P 1"
_space_group_IT_number       1

loop_
  _space_group_symop_operation_xyz
  'x, y, z'

loop_
  _atom_site_type_symbol
  _atom_site_label
  _atom_site_symmetry_multiplicity
  _atom_site_fract_x
  _atom_site_fract_y
  _atom_site_fract_z
  _atom_site_occupancy
  C   C1        1.0  0.26849  0.46875  0.33134  1.0000
  C   C2        1.0  0.25284  0.46705  0.25639  1.0000
  C   C3        1.0  0.22956  0.46716  0.26991  1.0000
  N   N1        1.0  0.26176  0.46596  0.16811  1.0000
  N   N2        1.0  0.21617  0.46672  0.19036  1.0000
  O   O1        1.0  0.24684  0.44585  0.12689  1.0000
  O   O2        1.0  0.19465  0.44718  0.18550  1.0000
  O   O3        1.0  0.26615  0.48480  0.11998  1.0000
  O   O4        1.0  0.21445  0.48632  0.18062  1.0000
  C   C4        1.0  0.22053  0.77433  0.33130  1.0000
  C   C5        1.0  0.23448  0.78998  0.25635  1.0000
  C   C6        1.0  0.25786  0.81326  0.26988  1.0000
  N   N3        1.0  0.22448  0.78104  0.16807  1.0000
  N   N4        1.0  0.27081  0.82665  0.19034  1.0000
  O   O5        1.0  0.21928  0.79595  0.12680  1.0000
  O   O6        1.0  0.23893  0.77665  0.12000  1.0000
  C   C7        1.0  0.20098  0.74910  0.31831  1.0000
  H   H1        1.0  0.20462  0.73901  0.27373  1.0000
  C   C8        1.0  0.14793  0.56212  0.34818  1.0000
  C   C9        1.0  0.14771  0.57694  0.27437  1.0000
  C   C10       1.0  0.14796  0.59991  0.28835  1.0000
  H   H2        1.0  0.14597  0.60894  0.23290  1.0000
  H   H3        1.0  0.14569  0.57032  0.20908  1.0000
  C   C11       1.0  0.14178  0.53718  0.32948  1.0000
  H   H4        1.0  0.12710  0.52727  0.28817  1.0000
  C   C12       1.0  0.04849  0.40429  0.34293  1.0000
  C   C13       1.0  0.03298  0.39905  0.26425  1.0000
  N   N5        1.0  0.04603  0.40757  0.18022  1.0000
  O   O7        1.0  0.04272  0.42409  0.14168  1.0000
  O   O8        1.0  0.04188  0.38997  0.12611  1.0000
  C   C14       1.0  0.07494  0.41538  0.33777  1.0000
  H   H5        1.0  0.08218  0.40489  0.31587  1.0000
  C   C15       1.0  0.03631  0.65786  0.27227  1.0000
  N   N6        1.0  0.05294  0.66422  0.19682  1.0000
  O   O9        1.0  0.05111  0.64534  0.15552  1.0000
  O   O10       1.0  0.05177  0.67945  0.14229  1.0000
  C   C16       1.0  0.14676  0.50149  0.35814  1.0000
  C   C17       1.0  0.16620  0.49526  0.35506  1.0000
  C   C18       1.0  0.16083  0.46972  0.35092  1.0000
  C   C19       1.0  0.13490  0.45023  0.34812  1.0000
  C   C20       1.0  0.11482  0.45577  0.35404  1.0000
  C   C21       1.0  0.12129  0.48146  0.36027  1.0000
  H   H6        1.0  0.13058  0.43173  0.34349  1.0000
  H   H7        1.0  0.10708  0.48576  0.36610  1.0000
  H   H8        1.0  0.18466  0.50972  0.35386  1.0000
  N   N7        1.0  0.15272  0.52582  0.36566  1.0000
  N   N8        1.0  0.17960  0.46403  0.34250  1.0000
  N   N9        1.0  0.08977  0.43908  0.35486  1.0000
  C   C22       1.0  0.14656  0.66746  0.34473  1.0000
  C   C23       1.0  0.16596  0.69313  0.34913  1.0000
  C   C24       1.0  0.16049  0.71323  0.35306  1.0000
  C   C25       1.0  0.13453  0.70672  0.35447  1.0000
  C   C26       1.0  0.11454  0.68109  0.34754  1.0000
  C   C27       1.0  0.12108  0.66193  0.34120  1.0000
  H   H9        1.0  0.13013  0.72087  0.35789  1.0000
  H   H10       1.0  0.10696  0.64337  0.33524  1.0000
  H   H11       1.0  0.18443  0.69716  0.35136  1.0000
  N   N10       1.0  0.15234  0.64894  0.34017  1.0000
  N   N11       1.0  0.17929  0.73774  0.35979  1.0000
  N   N12       1.0  0.08955  0.67283  0.34377  1.0000
  C   C28       1.0  0.22146  0.46904  0.35938  1.0000
  C   C29       1.0  0.23696  0.46995  0.43297  1.0000
  C   C30       1.0  0.25982  0.46977  0.41950  1.0000
  H   H12       1.0  0.23243  0.47222  0.49807  1.0000
  C   C31       1.0  0.20216  0.47485  0.37756  1.0000
  H   H13       1.0  0.20682  0.48936  0.41951  1.0000
  C   C32       1.0  0.26784  0.82139  0.35936  1.0000
  C   C33       1.0  0.25324  0.80588  0.43292  1.0000
  C   C34       1.0  0.23020  0.78301  0.41948  1.0000
  H   H14       1.0  0.22144  0.77183  0.47491  1.0000
  H   H15       1.0  0.26006  0.81038  0.49801  1.0000
  C   C35       1.0  0.14839  0.60905  0.37700  1.0000
  C   C36       1.0  0.14978  0.59503  0.45218  1.0000
  C   C37       1.0  0.14949  0.57165  0.43817  1.0000
  N   N13       1.0  0.15071  0.60489  0.54066  1.0000
  N   N14       1.0  0.14947  0.55839  0.51753  1.0000
  O   O11       1.0  0.17066  0.60982  0.58256  1.0000
  O   O12       1.0  0.16898  0.55640  0.52393  1.0000
  O   O13       1.0  0.13169  0.59045  0.58805  1.0000
  O   O14       1.0  0.12979  0.53707  0.52603  1.0000
  C   C38       1.0  0.14314  0.62873  0.38956  1.0000
  H   H16       1.0  0.13055  0.62628  0.43756  1.0000
  C   C39       1.0  0.03649  0.39626  0.42835  1.0000
  H   H17       1.0  0.04709  0.39941  0.48605  1.0000
  C   C40       1.0  0.04805  0.66608  0.35911  1.0000
  C   C41       1.0  0.03217  0.66041  0.43610  1.0000
  H   H18       1.0  0.03992  0.66615  0.49950  1.0000
  C   C42       1.0  0.07449  0.68055  0.37159  1.0000
  H   H19       1.0  0.08156  0.69639  0.40806  1.0000
  C   C43       1.0  0.29371  0.47441  0.31822  1.0000
  H   H20       1.0  0.30379  0.48812  0.27358  1.0000
  O   O15       1.0  0.27280  0.84817  0.18547  1.0000
  O   O16       1.0  0.29214  0.82838  0.18060  1.0000
  C   C44       1.0  0.46800  0.22130  0.33134  1.0000
  C   C45       1.0  0.46630  0.23525  0.25638  1.0000
  C   C46       1.0  0.46641  0.25864  0.26991  1.0000
  N   N15       1.0  0.46521  0.22524  0.16811  1.0000
  N   N16       1.0  0.46596  0.27159  0.19036  1.0000
  O   O17       1.0  0.44509  0.22004  0.12690  1.0000
  O   O18       1.0  0.44643  0.27357  0.18551  1.0000
  O   O19       1.0  0.48404  0.23968  0.11997  1.0000
  O   O20       1.0  0.48556  0.29291  0.18060  1.0000
  C   C47       1.0  0.47366  0.20174  0.31821  1.0000
  H   H21       1.0  0.48737  0.20537  0.27359  1.0000
  C   C48       1.0  0.48074  0.60829  0.34805  1.0000
  C   C49       1.0  0.46590  0.59328  0.27425  1.0000
  C   C50       1.0  0.44292  0.57058  0.28826  1.0000
  H   H22       1.0  0.43381  0.55957  0.23283  1.0000
  H   H23       1.0  0.47249  0.59792  0.20894  1.0000
  C   C51       1.0  0.43449  0.89492  0.34809  1.0000
  C   C52       1.0  0.44952  0.89514  0.27429  1.0000
  C   C53       1.0  0.47222  0.89487  0.28829  1.0000
  H   H24       1.0  0.48323  0.89679  0.23285  1.0000
  H   H25       1.0  0.44488  0.89709  0.20897  1.0000
  C   C54       1.0  0.41567  0.90104  0.32935  1.0000
  H   H26       1.0  0.42041  0.91569  0.28790  1.0000
  C   C55       1.0  0.37606  0.99434  0.34315  1.0000
  C   C56       1.0  0.38637  0.00982  0.26442  1.0000
  C   C57       1.0  0.40030  0.03703  0.27239  1.0000
  N   N17       1.0  0.38186  0.99674  0.18047  1.0000
  N   N18       1.0  0.41060  0.05360  0.19682  1.0000
  O   O21       1.0  0.40169  0.00003  0.14204  1.0000
  O   O22       1.0  0.42768  0.05173  0.15580  1.0000
  O   O23       1.0  0.36842  0.00087  0.12622  1.0000
  O   O24       1.0  0.39423  0.05240  0.14206  1.0000
  C   C58       1.0  0.36068  0.96789  0.33813  1.0000
  H   H27       1.0  0.34287  0.96066  0.31727  1.0000
  C   C59       1.0  0.40354  0.37683  0.34296  1.0000
  C   C60       1.0  0.39831  0.38711  0.26427  1.0000
  C   C61       1.0  0.38502  0.40103  0.27236  1.0000
  N   N19       1.0  0.40684  0.38259  0.18026  1.0000
  N   N20       1.0  0.37872  0.41133  0.19685  1.0000
  O   O25       1.0  0.42335  0.40242  0.14173  1.0000
  O   O26       1.0  0.39764  0.42840  0.15574  1.0000
  O   O27       1.0  0.38924  0.36914  0.12613  1.0000
  O   O28       1.0  0.36354  0.39495  0.14214  1.0000
  C   C62       1.0  0.41463  0.36147  0.33782  1.0000
  H   H28       1.0  0.40413  0.34374  0.31600  1.0000
  C   C63       1.0  0.37501  0.89607  0.35803  1.0000
  C   C64       1.0  0.34933  0.87662  0.35506  1.0000
  C   C65       1.0  0.32916  0.88199  0.35090  1.0000
  C   C66       1.0  0.33561  0.90793  0.34802  1.0000
  C   C67       1.0  0.36123  0.92801  0.35383  1.0000
  C   C68       1.0  0.38044  0.92153  0.36004  1.0000
  H   H29       1.0  0.32142  0.91224  0.34338  1.0000
  H   H30       1.0  0.39896  0.93575  0.36580  1.0000
  H   H31       1.0  0.34534  0.85817  0.35394  1.0000
  N   N21       1.0  0.39337  0.89011  0.36559  1.0000
  N   N22       1.0  0.30470  0.86323  0.34256  1.0000
  N   N23       1.0  0.36959  0.95305  0.35453  1.0000
  C   C69       1.0  0.46897  0.32993  0.35091  1.0000
  C   C70       1.0  0.44948  0.33637  0.34811  1.0000
  C   C71       1.0  0.45502  0.36199  0.35402  1.0000
  C   C72       1.0  0.48071  0.38120  0.36023  1.0000
  H   H32       1.0  0.43098  0.32219  0.34349  1.0000
  H   H33       1.0  0.48501  0.39972  0.36606  1.0000
  N   N24       1.0  0.46328  0.30546  0.34249  1.0000
  N   N25       1.0  0.43833  0.37035  0.35483  1.0000
  C   C73       1.0  0.46906  0.16126  0.35298  1.0000
  C   C74       1.0  0.44961  0.13530  0.35438  1.0000
  C   C75       1.0  0.45525  0.11531  0.34748  1.0000
  C   C76       1.0  0.48096  0.12185  0.34111  1.0000
  H   H34       1.0  0.43107  0.13091  0.35788  1.0000
  H   H35       1.0  0.48539  0.10773  0.33519  1.0000
  N   N26       1.0  0.46335  0.18006  0.35977  1.0000
  N   N27       1.0  0.43852  0.09032  0.34378  1.0000
  C   C77       1.0  0.37536  0.50164  0.34461  1.0000
  C   C78       1.0  0.34970  0.49539  0.34907  1.0000
  C   C79       1.0  0.32959  0.46981  0.35299  1.0000
  C   C80       1.0  0.33610  0.45036  0.35440  1.0000
  C   C81       1.0  0.36173  0.45600  0.34749  1.0000
  C   C82       1.0  0.38089  0.48171  0.34110  1.0000
  H   H36       1.0  0.32195  0.43182  0.35791  1.0000
  H   H37       1.0  0.39945  0.48614  0.33517  1.0000
  H   H38       1.0  0.34566  0.50982  0.35124  1.0000
  N   N28       1.0  0.39389  0.52594  0.34002  1.0000
  N   N29       1.0  0.30508  0.46410  0.35978  1.0000
  N   N30       1.0  0.36999  0.43927  0.34378  1.0000
  H   H39       1.0  0.27098  0.47213  0.47493  1.0000
  C   C83       1.0  0.29296  0.84066  0.37750  1.0000
  H   H40       1.0  0.30281  0.83596  0.41929  1.0000
  C   C84       1.0  0.46830  0.26863  0.35938  1.0000
  C   C85       1.0  0.46920  0.25403  0.43296  1.0000
  C   C86       1.0  0.46902  0.23099  0.41950  1.0000
  H   H41       1.0  0.47138  0.22219  0.47493  1.0000
  H   H42       1.0  0.47148  0.26083  0.49807  1.0000
  C   C87       1.0  0.47410  0.29373  0.37755  1.0000
  H   H43       1.0  0.48862  0.30359  0.41950  1.0000
  C   C88       1.0  0.43379  0.56188  0.37693  1.0000
  C   C89       1.0  0.44780  0.57728  0.45211  1.0000
  C   C90       1.0  0.47120  0.60037  0.43807  1.0000
  N   N31       1.0  0.43794  0.56839  0.54061  1.0000
  N   N32       1.0  0.48447  0.61362  0.51741  1.0000
  O   O29       1.0  0.43303  0.58343  0.58242  1.0000
  O   O30       1.0  0.48645  0.63511  0.52380  1.0000
  O   O31       1.0  0.45236  0.56380  0.58806  1.0000
  C   C91       1.0  0.41405  0.53698  0.38964  1.0000
  H   H44       1.0  0.41646  0.52684  0.43775  1.0000
  C   C92       1.0  0.48092  0.89440  0.37694  1.0000
  C   C93       1.0  0.46551  0.89302  0.45211  1.0000
  C   C94       1.0  0.44242  0.89332  0.43809  1.0000
  N   N33       1.0  0.47442  0.89207  0.54061  1.0000
  N   N34       1.0  0.42918  0.89335  0.51745  1.0000
  O   O32       1.0  0.45938  0.87212  0.58245  1.0000
  O   O33       1.0  0.40768  0.87385  0.52386  1.0000
  O   O34       1.0  0.47900  0.91108  0.58803  1.0000
  O   O35       1.0  0.42756  0.91304  0.52593  1.0000
  C   C95       1.0  0.40377  0.04883  0.35908  1.0000
  C   C96       1.0  0.39347  0.03301  0.43616  1.0000
  C   C97       1.0  0.38000  0.00637  0.42850  1.0000
  H   H45       1.0  0.37251  0.99579  0.48620  1.0000
  H   H46       1.0  0.39541  0.04081  0.49943  1.0000
  C   C98       1.0  0.41570  0.07527  0.37128  1.0000
  H   H47       1.0  0.40689  0.08236  0.40745  1.0000
  C   C99       1.0  0.37674  0.40453  0.35912  1.0000
  C   C100      1.0  0.38233  0.39426  0.43616  1.0000
  C   C101      1.0  0.39550  0.38080  0.42837  1.0000
  H   H48       1.0  0.39865  0.37335  0.48607  1.0000
  H   H49       1.0  0.37653  0.39624  0.49949  1.0000
  C   C102      1.0  0.36225  0.41647  0.37144  1.0000
  H   H50       1.0  0.34637  0.40768  0.40776  1.0000
  C   C103      1.0  0.57407  0.82228  0.33141  1.0000
  C   C104      1.0  0.57575  0.80832  0.25642  1.0000
  C   C105      1.0  0.57565  0.78494  0.26992  1.0000
  N   N35       1.0  0.57680  0.81832  0.16816  1.0000
  N   N36       1.0  0.57606  0.77197  0.19036  1.0000
  O   O36       1.0  0.59689  0.82351  0.12681  1.0000
  O   O37       1.0  0.59559  0.76998  0.18540  1.0000
  O   O38       1.0  0.55794  0.80386  0.12013  1.0000
  O   O39       1.0  0.55645  0.75066  0.18067  1.0000
  C   C106      1.0  0.56838  0.84182  0.31834  1.0000
  H   H51       1.0  0.55465  0.83817  0.27380  1.0000
  C   C107      1.0  0.50567  0.62713  0.32936  1.0000
  H   H52       1.0  0.51559  0.62239  0.28797  1.0000
  C   C108      1.0  0.56137  0.43523  0.34815  1.0000
  C   C109      1.0  0.57619  0.45026  0.27434  1.0000
  C   C110      1.0  0.59917  0.47298  0.28831  1.0000
  H   H53       1.0  0.60820  0.48401  0.23287  1.0000
  H   H54       1.0  0.56957  0.44566  0.20905  1.0000
  C   C111      1.0  0.53643  0.41643  0.32945  1.0000
  H   H55       1.0  0.52652  0.42121  0.28815  1.0000
  C   C112      1.0  0.60754  0.14860  0.34805  1.0000
  C   C113      1.0  0.59253  0.14843  0.27426  1.0000
  C   C114      1.0  0.56983  0.14870  0.28828  1.0000
  H   H56       1.0  0.55882  0.14680  0.23284  1.0000
  H   H57       1.0  0.59718  0.14648  0.20895  1.0000
  C   C115      1.0  0.62639  0.14251  0.32935  1.0000
  H   H58       1.0  0.62164  0.12785  0.28796  1.0000
  O   O40       1.0  0.61870  0.64114  0.14179  1.0000
  C   C116      1.0  0.62745  0.68211  0.33781  1.0000
  N   N37       1.0  0.63147  0.98993  0.19682  1.0000
  O   O41       1.0  0.61439  0.99178  0.15576  1.0000
  C   C117      1.0  0.54134  0.66779  0.35809  1.0000
  C   C118      1.0  0.54756  0.69346  0.35508  1.0000
  C   C119      1.0  0.57311  0.71364  0.35090  1.0000
  C   C120      1.0  0.59260  0.70720  0.34819  1.0000
  C   C121      1.0  0.58706  0.68158  0.35415  1.0000
  C   C122      1.0  0.56138  0.66237  0.36032  1.0000
  H   H59       1.0  0.61110  0.72139  0.34364  1.0000
  H   H60       1.0  0.55708  0.64385  0.36617  1.0000
  H   H61       1.0  0.53310  0.69745  0.35379  1.0000
  N   N38       1.0  0.51701  0.64942  0.36562  1.0000
  N   N39       1.0  0.57880  0.73810  0.34257  1.0000
  N   N40       1.0  0.60376  0.67324  0.35508  1.0000
  C   C123      1.0  0.50074  0.37577  0.35810  1.0000
  C   C124      1.0  0.49451  0.35010  0.35504  1.0000
  H   H62       1.0  0.50897  0.34611  0.35384  1.0000
  N   N41       1.0  0.52507  0.39413  0.36561  1.0000
  C   C125      1.0  0.50089  0.14733  0.34462  1.0000
  C   C126      1.0  0.49464  0.16673  0.34907  1.0000
  H   H63       1.0  0.50907  0.18520  0.35124  1.0000
  N   N42       1.0  0.52519  0.15310  0.34003  1.0000
  C   C127      1.0  0.54117  0.89624  0.34468  1.0000
  C   C128      1.0  0.54742  0.87683  0.34907  1.0000
  C   C129      1.0  0.57300  0.88231  0.35304  1.0000
  C   C130      1.0  0.59245  0.90827  0.35447  1.0000
  C   C131      1.0  0.58681  0.92826  0.34755  1.0000
  C   C132      1.0  0.56110  0.92171  0.34120  1.0000
  H   H64       1.0  0.61100  0.91267  0.35792  1.0000
  H   H65       1.0  0.55667  0.93584  0.33525  1.0000
  H   H66       1.0  0.53300  0.85837  0.35130  1.0000
  N   N43       1.0  0.51686  0.89046  0.34009  1.0000
  N   N44       1.0  0.57871  0.86351  0.35979  1.0000
  N   N45       1.0  0.60354  0.95325  0.34385  1.0000
  C   C133      1.0  0.57381  0.77495  0.35938  1.0000
  C   C134      1.0  0.57291  0.78955  0.43297  1.0000
  C   C135      1.0  0.57310  0.81260  0.41956  1.0000
  H   H67       1.0  0.57067  0.82135  0.47498  1.0000
  H   H68       1.0  0.57059  0.78272  0.49805  1.0000
  C   C136      1.0  0.56796  0.74983  0.37749  1.0000
  H   H69       1.0  0.55340  0.73997  0.41928  1.0000
  O   O42       1.0  0.50578  0.61525  0.52593  1.0000
  C   C137      1.0  0.50583  0.89961  0.38962  1.0000
  H   H70       1.0  0.51597  0.91218  0.43771  1.0000
  C   C138      1.0  0.60831  0.48168  0.37697  1.0000
  C   C139      1.0  0.59430  0.46629  0.45215  1.0000
  C   C140      1.0  0.57091  0.44319  0.43814  1.0000
  N   N46       1.0  0.60416  0.47520  0.54063  1.0000
  N   N47       1.0  0.55765  0.42995  0.51749  1.0000
  O   O43       1.0  0.60908  0.46018  0.58250  1.0000
  O   O44       1.0  0.55566  0.40845  0.52388  1.0000
  O   O45       1.0  0.58973  0.47979  0.58803  1.0000
  O   O46       1.0  0.53634  0.42832  0.52602  1.0000
  C   C141      1.0  0.62800  0.50661  0.38954  1.0000
  H   H71       1.0  0.62556  0.51676  0.43757  1.0000
  C   C142      1.0  0.56113  0.14914  0.37695  1.0000
  C   C143      1.0  0.57653  0.15052  0.45211  1.0000
  C   C144      1.0  0.59962  0.15021  0.43807  1.0000
  N   N48       1.0  0.56764  0.15149  0.54062  1.0000
  N   N49       1.0  0.61287  0.15019  0.51741  1.0000
  O   O47       1.0  0.58269  0.17144  0.58242  1.0000
  O   O48       1.0  0.56306  0.13248  0.58807  1.0000
  O   O49       1.0  0.61450  0.13051  0.52593  1.0000
  C   C145      1.0  0.53623  0.14396  0.38966  1.0000
  H   H72       1.0  0.52609  0.13141  0.43778  1.0000
  C   C146      1.0  0.62635  0.96831  0.37139  1.0000
  C   C147      1.0  0.77358  0.57480  0.33126  1.0000
  C   C148      1.0  0.78922  0.57648  0.25630  1.0000
  C   C149      1.0  0.81249  0.57637  0.26988  1.0000
  N   N50       1.0  0.78030  0.57756  0.16801  1.0000
  N   N51       1.0  0.82589  0.57680  0.19037  1.0000
  O   O50       1.0  0.79522  0.59766  0.12676  1.0000
  O   O51       1.0  0.84741  0.59635  0.18547  1.0000
  O   O52       1.0  0.77591  0.55871  0.11992  1.0000
  O   O53       1.0  0.82763  0.55721  0.18067  1.0000
  C   C150      1.0  0.74836  0.56918  0.31812  1.0000
  H   H73       1.0  0.73829  0.55551  0.27335  1.0000
  C   C151      1.0  0.82153  0.26924  0.33139  1.0000
  C   C152      1.0  0.80757  0.25360  0.25641  1.0000
  C   C153      1.0  0.78419  0.23032  0.26991  1.0000
  N   N52       1.0  0.81757  0.26256  0.16814  1.0000
  N   N53       1.0  0.77123  0.21695  0.19034  1.0000
  O   O54       1.0  0.82277  0.24765  0.12681  1.0000
  O   O55       1.0  0.76923  0.19543  0.18539  1.0000
  O   O56       1.0  0.80312  0.26696  0.12011  1.0000
  O   O57       1.0  0.74991  0.21525  0.18065  1.0000
  C   C154      1.0  0.84108  0.29447  0.31833  1.0000
  H   H74       1.0  0.83742  0.30455  0.27380  1.0000
  C   C155      1.0  0.89415  0.48147  0.34826  1.0000
  C   C156      1.0  0.89436  0.46666  0.27444  1.0000
  C   C157      1.0  0.89408  0.44367  0.28837  1.0000
  H   H75       1.0  0.89610  0.43464  0.23293  1.0000
  H   H76       1.0  0.89639  0.47329  0.20916  1.0000
  C   C158      1.0  0.90031  0.50642  0.32962  1.0000
  H   H77       1.0  0.91499  0.51633  0.28833  1.0000
  C   C159      1.0  0.00577  0.38577  0.27235  1.0000
  N   N54       1.0  0.98917  0.37946  0.19683  1.0000
  O   O58       1.0  0.99102  0.39838  0.15572  1.0000
  O   O59       1.0  0.99036  0.36427  0.14215  1.0000
  C   C160      1.0  0.63854  0.66675  0.34296  1.0000
  C   C161      1.0  0.64377  0.65646  0.26428  1.0000
  C   C162      1.0  0.65705  0.64254  0.27236  1.0000
  N   N55       1.0  0.63523  0.66097  0.18026  1.0000
  N   N56       1.0  0.66334  0.63223  0.19685  1.0000
  O   O60       1.0  0.64441  0.61515  0.15580  1.0000
  O   O61       1.0  0.65281  0.67442  0.12610  1.0000
  O   O62       1.0  0.67852  0.64860  0.14211  1.0000
  H   H78       1.0  0.63790  0.69979  0.31544  1.0000
  C   C163      1.0  0.99357  0.63928  0.34269  1.0000
  C   C164      1.0  0.00911  0.64458  0.26405  1.0000
  N   N57       1.0  0.99610  0.63610  0.17994  1.0000
  O   O63       1.0  0.99942  0.61960  0.14133  1.0000
  O   O64       1.0  0.00026  0.65373  0.12593  1.0000
  C   C165      1.0  0.96711  0.62817  0.33738  1.0000
  H   H79       1.0  0.95988  0.63854  0.31421  1.0000
  C   C166      1.0  0.66598  0.04924  0.34294  1.0000
  C   C167      1.0  0.65570  0.03373  0.26425  1.0000
  C   C168      1.0  0.64178  0.00652  0.27233  1.0000
  N   N58       1.0  0.66021  0.04678  0.18024  1.0000
  O   O65       1.0  0.64039  0.04348  0.14174  1.0000
  O   O66       1.0  0.67366  0.04264  0.12608  1.0000
  O   O67       1.0  0.64784  0.99112  0.14208  1.0000
  C   C169      1.0  0.68135  0.07569  0.33778  1.0000
  H   H80       1.0  0.69903  0.08292  0.31541  1.0000
  C   C170      1.0  0.89532  0.54209  0.35825  1.0000
  C   C171      1.0  0.87587  0.54832  0.35513  1.0000
  C   C172      1.0  0.88124  0.57386  0.35091  1.0000
  C   C173      1.0  0.90717  0.59335  0.34822  1.0000
  C   C174      1.0  0.92725  0.58782  0.35430  1.0000
  C   C175      1.0  0.92078  0.56213  0.36054  1.0000
  H   H81       1.0  0.91149  0.61186  0.34364  1.0000
  H   H82       1.0  0.93500  0.55783  0.36646  1.0000
  H   H83       1.0  0.85742  0.53385  0.35379  1.0000
  N   N59       1.0  0.88935  0.51777  0.36575  1.0000
  N   N60       1.0  0.86247  0.57954  0.34247  1.0000
  N   N61       1.0  0.95229  0.60451  0.35529  1.0000
  C   C176      1.0  0.66704  0.14750  0.35808  1.0000
  C   C177      1.0  0.69272  0.16695  0.35504  1.0000
  C   C178      1.0  0.71289  0.16157  0.35087  1.0000
  C   C179      1.0  0.70645  0.13564  0.34816  1.0000
  C   C180      1.0  0.68083  0.11556  0.35413  1.0000
  C   C181      1.0  0.66162  0.12203  0.36030  1.0000
  H   H84       1.0  0.72064  0.13133  0.34363  1.0000
  H   H85       1.0  0.64311  0.10782  0.36617  1.0000
  H   H86       1.0  0.69671  0.18540  0.35379  1.0000
  N   N62       1.0  0.64868  0.15346  0.36561  1.0000
  N   N63       1.0  0.73736  0.18034  0.34255  1.0000
  N   N64       1.0  0.67249  0.09052  0.35506  1.0000
  C   C182      1.0  0.66673  0.54194  0.34470  1.0000
  C   C183      1.0  0.69239  0.54819  0.34911  1.0000
  C   C184      1.0  0.71250  0.57377  0.35306  1.0000
  C   C185      1.0  0.70599  0.59322  0.35449  1.0000
  C   C186      1.0  0.68036  0.58758  0.34757  1.0000
  C   C187      1.0  0.66119  0.56188  0.34120  1.0000
  H   H87       1.0  0.72014  0.61177  0.35796  1.0000
  H   H88       1.0  0.64264  0.55745  0.33525  1.0000
  H   H89       1.0  0.69643  0.53377  0.35130  1.0000
  N   N65       1.0  0.64820  0.51763  0.34012  1.0000
  N   N66       1.0  0.73700  0.57947  0.35984  1.0000
  N   N67       1.0  0.67210  0.60431  0.34388  1.0000
  C   C188      1.0  0.89550  0.37611  0.34471  1.0000
  C   C189      1.0  0.87609  0.35045  0.34915  1.0000
  C   C190      1.0  0.88156  0.33034  0.35302  1.0000
  C   C191      1.0  0.90753  0.33686  0.35440  1.0000
  C   C192      1.0  0.92752  0.36249  0.34751  1.0000
  C   C193      1.0  0.92097  0.38165  0.34116  1.0000
  H   H90       1.0  0.91193  0.32271  0.35787  1.0000
  H   H91       1.0  0.93510  0.40021  0.33523  1.0000
  H   H92       1.0  0.85763  0.34641  0.35134  1.0000
  N   N68       1.0  0.88972  0.39463  0.34016  1.0000
  N   N69       1.0  0.86277  0.30583  0.35977  1.0000
  N   N70       1.0  0.95251  0.37075  0.34377  1.0000
  C   C194      1.0  0.82060  0.57451  0.35940  1.0000
  C   C195      1.0  0.80512  0.57367  0.43296  1.0000
  C   C196      1.0  0.78226  0.57385  0.41946  1.0000
  H   H93       1.0  0.77111  0.57153  0.47488  1.0000
  H   H94       1.0  0.80966  0.57143  0.49808  1.0000
  C   C197      1.0  0.83991  0.56873  0.37757  1.0000
  H   H95       1.0  0.83527  0.55423  0.41960  1.0000
  C   C198      1.0  0.77421  0.22218  0.35937  1.0000
  C   C199      1.0  0.78881  0.23768  0.43295  1.0000
  C   C200      1.0  0.81186  0.26054  0.41955  1.0000
  H   H96       1.0  0.82061  0.27173  0.47497  1.0000
  H   H97       1.0  0.78198  0.23318  0.49803  1.0000
  C   C201      1.0  0.74909  0.20292  0.37747  1.0000
  H   H98       1.0  0.73923  0.20761  0.41926  1.0000
  C   C202      1.0  0.89366  0.43452  0.37700  1.0000
  C   C203      1.0  0.89227  0.44853  0.45220  1.0000
  C   C204      1.0  0.89256  0.47192  0.43824  1.0000
  N   N71       1.0  0.89134  0.43867  0.54068  1.0000
  N   N72       1.0  0.89261  0.48519  0.51762  1.0000
  O   O68       1.0  0.87139  0.43374  0.58259  1.0000
  O   O69       1.0  0.87311  0.48719  0.52406  1.0000
  O   O70       1.0  0.91036  0.45310  0.58807  1.0000
  O   O71       1.0  0.91230  0.50649  0.52612  1.0000
  C   C205      1.0  0.89889  0.41483  0.38962  1.0000
  H   H99       1.0  0.91149  0.41728  0.43761  1.0000
  O   O72       1.0  0.63437  0.16971  0.52380  1.0000
  C   C206      1.0  0.99400  0.37749  0.35911  1.0000
  C   C207      1.0  0.00985  0.38309  0.43615  1.0000
  H   H100      1.0  0.00208  0.37730  0.49948  1.0000
  C   C208      1.0  0.96757  0.36301  0.37145  1.0000
  H   H101      1.0  0.96048  0.34714  0.40779  1.0000
  C   C209      1.0  0.66535  0.63906  0.35911  1.0000
  C   C210      1.0  0.65977  0.64933  0.43615  1.0000
  C   C211      1.0  0.64658  0.66278  0.42837  1.0000
  H   H102      1.0  0.64346  0.67026  0.48605  1.0000
  H   H103      1.0  0.66559  0.64738  0.49946  1.0000
  C   C212      1.0  0.67985  0.62712  0.37142  1.0000
  H   H104      1.0  0.69575  0.63595  0.40756  1.0000
  C   C213      1.0  0.00554  0.64723  0.42819  1.0000
  H   H105      1.0  0.99491  0.64403  0.48586  1.0000
  C   C214      1.0  0.63828  0.99475  0.35908  1.0000
  C   C215      1.0  0.64856  0.01060  0.43612  1.0000
  C   C216      1.0  0.66201  0.03723  0.42835  1.0000
  H   H106      1.0  0.66949  0.04783  0.48603  1.0000
  H   H107      1.0  0.64660  0.00282  0.49943  1.0000
  H   H108      1.0  0.63517  0.96123  0.40753  1.0000
