data_image0
_chemical_formula_structural       C3NC3NC5NC5NC20H18N4C3NC3NC5NC5NC20H18N4C3NC3NC5NC5NC20H18N4C3NC3NC5NC5NC20H18N4C3NC3NC5NC5NC20H18N4C3NC3NC5NC5NC20H18N4C3O2H2CHC3O2H2CHC3O2H2CHC3O2H2CHC3O2H2CHC3O2H2CHC3O2H2CHC3O2H2CHC3O2H2CHC3O2H2CHC3O2H2CHC3O2H2CHC8H8C8H8C8H8C8H8C8H8C8H8C3OHOHCHC3OHOHCHC3OHOHCHC3OHOHCHC3OHOHCHC3OHOHCHC3OHOHCHC3OHOHCHC3OHOHCHC3OHOHCHC3OHOHCHC3OHOHCH
_chemical_formula_sum              "C360 N48 H228 O48"
_cell_length_a       69.2851
_cell_length_b       69.2851
_cell_length_c       14.8659
_cell_angle_alpha    90.0046
_cell_angle_beta     89.9098
_cell_angle_gamma    120

_space_group_name_H-M_alt    "P 1"
_space_group_IT_number       1

loop_
  _space_group_symop_operation_xyz
  'x, y, z'

loop_
  _atom_site_type_symbol
  _atom_site_label
  _atom_site_symmetry_multiplicity
  _atom_site_fract_x
  _atom_site_fract_y
  _atom_site_fract_z
  _atom_site_occupancy
  C   C1        1.0  0.21379  0.37833  0.32655  1.0000
  C   C2        1.0  0.23374  0.37825  0.32632  1.0000
  C   C3        1.0  0.25123  0.40031  0.32486  1.0000
  N   N1        1.0  0.24115  0.41285  0.32421  1.0000
  C   C4        1.0  0.21852  0.40044  0.32542  1.0000
  C   C5        1.0  0.20223  0.40730  0.32588  1.0000
  C   C6        1.0  0.20732  0.42992  0.32597  1.0000
  N   N2        1.0  0.22762  0.44857  0.32537  1.0000
  C   C7        1.0  0.22619  0.46735  0.32638  1.0000
  C   C8        1.0  0.20348  0.46034  0.32759  1.0000
  C   C9        1.0  0.19188  0.43732  0.32723  1.0000
  C   C10       1.0  0.24386  0.48983  0.32614  1.0000
  C   C11       1.0  0.26691  0.49649  0.32479  1.0000
  N   N3        1.0  0.27687  0.48390  0.32564  1.0000
  C   C12       1.0  0.29943  0.49637  0.32406  1.0000
  C   C13       1.0  0.30422  0.51851  0.32161  1.0000
  C   C14       1.0  0.28435  0.51858  0.32217  1.0000
  C   C15       1.0  0.31572  0.48957  0.32438  1.0000
  C   C16       1.0  0.31075  0.46704  0.32435  1.0000
  N   N4        1.0  0.29048  0.44834  0.32459  1.0000
  C   C17       1.0  0.29198  0.42960  0.32438  1.0000
  C   C18       1.0  0.31479  0.43686  0.32357  1.0000
  C   C19       1.0  0.32633  0.45988  0.32394  1.0000
  C   C20       1.0  0.27436  0.40702  0.32479  1.0000
  C   C21       1.0  0.28068  0.39022  0.32535  1.0000
  C   C22       1.0  0.29964  0.36169  0.32312  1.0000
  C   C23       1.0  0.29218  0.36686  0.24311  1.0000
  C   C24       1.0  0.28302  0.38104  0.24391  1.0000
  C   C25       1.0  0.33861  0.50669  0.32456  1.0000
  C   C26       1.0  0.38255  0.54440  0.32285  1.0000
  C   C27       1.0  0.37222  0.53320  0.24234  1.0000
  C   C28       1.0  0.35046  0.51467  0.24290  1.0000
  C   C29       1.0  0.23825  0.50706  0.32775  1.0000
  C   C30       1.0  0.23592  0.51634  0.24670  1.0000
  C   C31       1.0  0.23331  0.53525  0.24806  1.0000
  C   C32       1.0  0.23300  0.54534  0.33048  1.0000
  C   C33       1.0  0.17906  0.39063  0.32749  1.0000
  C   C34       1.0  0.16667  0.38339  0.24681  1.0000
  C   C35       1.0  0.13152  0.36284  0.33130  1.0000
  C   C36       1.0  0.14327  0.36966  0.24868  1.0000
  H   H1        1.0  0.13483  0.36551  0.18908  1.0000
  H   H2        1.0  0.17452  0.38884  0.18606  1.0000
  H   H3        1.0  0.19840  0.36433  0.32783  1.0000
  H   H4        1.0  0.23501  0.36418  0.32744  1.0000
  H   H5        1.0  0.24920  0.42886  0.32294  1.0000
  H   H6        1.0  0.26883  0.46791  0.32866  1.0000
  H   H7        1.0  0.17490  0.42779  0.32814  1.0000
  H   H8        1.0  0.19631  0.47012  0.32860  1.0000
  H   H9        1.0  0.23699  0.50995  0.18606  1.0000
  H   H10       1.0  0.23254  0.54208  0.18822  1.0000
  H   H11       1.0  0.28318  0.53270  0.32055  1.0000
  H   H12       1.0  0.31955  0.53257  0.31941  1.0000
  H   H13       1.0  0.32215  0.42725  0.32282  1.0000
  H   H14       1.0  0.34330  0.46957  0.32344  1.0000
  H   H15       1.0  0.34310  0.50744  0.18310  1.0000
  H   H16       1.0  0.38021  0.53892  0.18199  1.0000
  H   H17       1.0  0.27872  0.38519  0.18416  1.0000
  H   H18       1.0  0.29413  0.36095  0.18268  1.0000
  N   N5        1.0  0.40268  0.56252  0.31604  1.0000
  N   N6        1.0  0.23232  0.56417  0.33672  1.0000
  N   N7        1.0  0.10926  0.35136  0.33846  1.0000
  N   N8        1.0  0.30931  0.34913  0.31586  1.0000
  C   C37       1.0  0.69359  0.83771  0.32773  1.0000
  C   C38       1.0  0.69367  0.85773  0.32740  1.0000
  C   C39       1.0  0.67161  0.85316  0.32589  1.0000
  N   N9        1.0  0.65907  0.83054  0.32525  1.0000
  C   C40       1.0  0.67148  0.82032  0.32655  1.0000
  C   C41       1.0  0.66462  0.79717  0.32705  1.0000
  C   C42       1.0  0.64200  0.77964  0.32714  1.0000
  N   N10       1.0  0.62335  0.78129  0.32658  1.0000
  C   C43       1.0  0.60457  0.76108  0.32755  1.0000
  C   C44       1.0  0.61159  0.74538  0.32869  1.0000
  C   C45       1.0  0.63460  0.75680  0.32837  1.0000
  C   C46       1.0  0.58209  0.75627  0.32734  1.0000
  C   C47       1.0  0.57543  0.77266  0.32607  1.0000
  N   N11       1.0  0.58802  0.79521  0.32684  1.0000
  C   C48       1.0  0.57555  0.80530  0.32523  1.0000
  C   C49       1.0  0.55341  0.78794  0.32297  1.0000
  C   C50       1.0  0.55334  0.76801  0.32365  1.0000
  C   C51       1.0  0.58235  0.82838  0.32531  1.0000
  C   C52       1.0  0.60488  0.84594  0.32519  1.0000
  N   N12       1.0  0.62359  0.84438  0.32556  1.0000
  C   C53       1.0  0.64232  0.86462  0.32521  1.0000
  C   C54       1.0  0.63506  0.88017  0.32420  1.0000
  C   C55       1.0  0.61204  0.86869  0.32457  1.0000
  C   C56       1.0  0.66490  0.86957  0.32568  1.0000
  C   C57       1.0  0.68170  0.89271  0.32614  1.0000
  C   C58       1.0  0.71025  0.94018  0.32365  1.0000
  C   C59       1.0  0.70514  0.92751  0.24373  1.0000
  C   C60       1.0  0.69097  0.90418  0.24466  1.0000
  C   C61       1.0  0.56523  0.83416  0.32532  1.0000
  C   C62       1.0  0.52753  0.84039  0.32334  1.0000
  C   C63       1.0  0.53879  0.84124  0.24290  1.0000
  C   C64       1.0  0.55732  0.83801  0.24360  1.0000
  C   C65       1.0  0.56487  0.73343  0.32895  1.0000
  C   C66       1.0  0.55561  0.72182  0.24790  1.0000
  C   C67       1.0  0.53672  0.70029  0.24929  1.0000
  C   C68       1.0  0.52661  0.68988  0.33173  1.0000
  C   C69       1.0  0.68129  0.79068  0.32868  1.0000
  C   C70       1.0  0.68861  0.78555  0.24800  1.0000
  C   C71       1.0  0.70906  0.77090  0.33251  1.0000
  C   C72       1.0  0.70230  0.77584  0.24989  1.0000
  H   H19       1.0  0.70652  0.77157  0.19027  1.0000
  H   H20       1.0  0.68319  0.78794  0.18724  1.0000
  H   H21       1.0  0.70759  0.83632  0.32909  1.0000
  H   H22       1.0  0.70774  0.87307  0.32857  1.0000
  H   H23       1.0  0.64307  0.82258  0.32391  1.0000
  H   H24       1.0  0.60401  0.80317  0.32940  1.0000
  H   H25       1.0  0.64414  0.74935  0.32918  1.0000
  H   H26       1.0  0.60180  0.72843  0.32963  1.0000
  H   H27       1.0  0.56201  0.72930  0.18725  1.0000
  H   H28       1.0  0.52988  0.69270  0.18945  1.0000
  H   H29       1.0  0.53922  0.75271  0.32208  1.0000
  H   H30       1.0  0.53935  0.78922  0.32079  1.0000
  H   H31       1.0  0.64467  0.89714  0.32332  1.0000
  H   H32       1.0  0.60235  0.87597  0.32396  1.0000
  H   H33       1.0  0.56459  0.83786  0.18384  1.0000
  H   H34       1.0  0.53312  0.84350  0.18250  1.0000
  H   H35       1.0  0.68687  0.89569  0.18497  1.0000
  H   H36       1.0  0.71113  0.93534  0.18328  1.0000
  N   N13       1.0  0.50941  0.84240  0.31639  1.0000
  N   N14       1.0  0.50776  0.67037  0.33799  1.0000
  N   N15       1.0  0.72055  0.76013  0.33965  1.0000
  N   N16       1.0  0.72282  0.96240  0.31625  1.0000
  C   C73       1.0  0.23422  0.85813  0.32581  1.0000
  C   C74       1.0  0.21420  0.83818  0.32543  1.0000
  C   C75       1.0  0.21877  0.82069  0.32394  1.0000
  N   N17       1.0  0.24139  0.83077  0.32334  1.0000
  C   C76       1.0  0.25160  0.85340  0.32466  1.0000
  C   C77       1.0  0.27476  0.86969  0.32523  1.0000
  C   C78       1.0  0.29229  0.86460  0.32540  1.0000
  N   N18       1.0  0.29064  0.84430  0.32483  1.0000
  C   C79       1.0  0.31085  0.84573  0.32595  1.0000
  C   C80       1.0  0.32654  0.86844  0.32720  1.0000
  C   C81       1.0  0.31513  0.88004  0.32677  1.0000
  C   C82       1.0  0.31565  0.82806  0.32578  1.0000
  C   C83       1.0  0.29926  0.80501  0.32440  1.0000
  N   N19       1.0  0.27671  0.79505  0.32505  1.0000
  C   C84       1.0  0.26663  0.77249  0.32339  1.0000
  C   C85       1.0  0.28398  0.76771  0.32120  1.0000
  C   C86       1.0  0.30392  0.78757  0.32198  1.0000
  C   C87       1.0  0.24354  0.75620  0.32340  1.0000
  C   C88       1.0  0.22598  0.76117  0.32324  1.0000
  N   N20       1.0  0.22755  0.78145  0.32359  1.0000
  C   C89       1.0  0.20731  0.77994  0.32325  1.0000
  C   C90       1.0  0.19176  0.75713  0.32226  1.0000
  C   C91       1.0  0.20324  0.74559  0.32260  1.0000
  C   C92       1.0  0.20236  0.79757  0.32373  1.0000
  C   C93       1.0  0.17922  0.79124  0.32422  1.0000
  C   C94       1.0  0.13174  0.77229  0.32197  1.0000
  C   C95       1.0  0.14443  0.77980  0.24196  1.0000
  C   C96       1.0  0.16777  0.78899  0.24279  1.0000
  C   C97       1.0  0.23776  0.73331  0.32348  1.0000
  C   C98       1.0  0.23151  0.68937  0.32170  1.0000
  C   C99       1.0  0.23074  0.69978  0.24118  1.0000
  C   C100      1.0  0.23397  0.72153  0.24179  1.0000
  C   C101      1.0  0.33849  0.83367  0.32759  1.0000
  C   C102      1.0  0.35021  0.83604  0.24668  1.0000
  C   C103      1.0  0.37174  0.83869  0.24831  1.0000
  C   C104      1.0  0.38203  0.83896  0.33086  1.0000
  C   C105      1.0  0.28125  0.89286  0.32693  1.0000
  C   C106      1.0  0.28649  0.90532  0.24630  1.0000
  C   C107      1.0  0.30102  0.94040  0.33097  1.0000
  C   C108      1.0  0.29618  0.92872  0.24830  1.0000
  H   H37       1.0  0.30051  0.93722  0.18873  1.0000
  H   H38       1.0  0.28414  0.89753  0.18552  1.0000
  H   H39       1.0  0.23561  0.87351  0.32719  1.0000
  H   H40       1.0  0.19886  0.83691  0.32662  1.0000
  H   H41       1.0  0.24935  0.82273  0.32201  1.0000
  H   H42       1.0  0.26875  0.80309  0.32761  1.0000
  H   H43       1.0  0.32257  0.89702  0.32768  1.0000
  H   H44       1.0  0.34349  0.87561  0.32828  1.0000
  H   H45       1.0  0.34282  0.83503  0.18596  1.0000
  H   H46       1.0  0.37941  0.83949  0.18856  1.0000
  H   H47       1.0  0.31921  0.78875  0.32048  1.0000
  H   H48       1.0  0.28271  0.75237  0.31902  1.0000
  H   H49       1.0  0.17479  0.74978  0.32142  1.0000
  H   H50       1.0  0.19595  0.72863  0.32208  1.0000
  H   H51       1.0  0.23421  0.72896  0.18199  1.0000
  H   H52       1.0  0.22856  0.69185  0.18080  1.0000
  H   H53       1.0  0.17627  0.79333  0.18305  1.0000
  H   H54       1.0  0.13662  0.77793  0.18155  1.0000
  N   N21       1.0  0.22951  0.66924  0.31485  1.0000
  N   N22       1.0  0.40153  0.83962  0.33734  1.0000
  N   N23       1.0  0.31179  0.96265  0.33823  1.0000
  N   N24       1.0  0.10952  0.76263  0.31470  1.0000
  C   C109      1.0  0.88061  0.67111  0.32749  1.0000
  C   C110      1.0  0.86066  0.67119  0.32735  1.0000
  C   C111      1.0  0.84317  0.64913  0.32599  1.0000
  N   N25       1.0  0.85325  0.63659  0.32529  1.0000
  C   C112      1.0  0.87588  0.64900  0.32640  1.0000
  C   C113      1.0  0.89217  0.64213  0.32683  1.0000
  C   C114      1.0  0.88708  0.61951  0.32706  1.0000
  N   N26       1.0  0.86678  0.60086  0.32672  1.0000
  C   C115      1.0  0.86821  0.58208  0.32781  1.0000
  C   C116      1.0  0.89092  0.58910  0.32882  1.0000
  C   C117      1.0  0.90252  0.61212  0.32827  1.0000
  C   C118      1.0  0.85054  0.55961  0.32781  1.0000
  C   C119      1.0  0.82749  0.55295  0.32665  1.0000
  N   N27       1.0  0.81753  0.56554  0.32749  1.0000
  C   C120      1.0  0.79497  0.55307  0.32598  1.0000
  C   C121      1.0  0.79018  0.53093  0.32370  1.0000
  C   C122      1.0  0.81005  0.53086  0.32429  1.0000
  C   C123      1.0  0.77868  0.55987  0.32618  1.0000
  C   C124      1.0  0.78365  0.58240  0.32598  1.0000
  N   N28       1.0  0.80393  0.60111  0.32614  1.0000
  C   C125      1.0  0.80242  0.61984  0.32577  1.0000
  C   C126      1.0  0.77961  0.61258  0.32497  1.0000
  C   C127      1.0  0.76807  0.58957  0.32546  1.0000
  C   C128      1.0  0.82005  0.64242  0.32604  1.0000
  C   C129      1.0  0.81372  0.65923  0.32649  1.0000
  C   C130      1.0  0.79480  0.68778  0.32410  1.0000
  C   C131      1.0  0.80235  0.68264  0.24414  1.0000
  C   C132      1.0  0.81154  0.66849  0.24504  1.0000
  C   C133      1.0  0.75579  0.54275  0.32639  1.0000
  C   C134      1.0  0.71185  0.50506  0.32472  1.0000
  C   C135      1.0  0.72225  0.51629  0.24420  1.0000
  C   C136      1.0  0.74401  0.53480  0.24474  1.0000
  C   C137      1.0  0.85614  0.54238  0.32942  1.0000
  C   C138      1.0  0.85854  0.53311  0.24839  1.0000
  C   C139      1.0  0.86116  0.51421  0.24981  1.0000
  C   C140      1.0  0.86141  0.50412  0.33225  1.0000
  C   C141      1.0  0.91533  0.65881  0.32822  1.0000
  C   C142      1.0  0.92776  0.66605  0.24742  1.0000
  C   C143      1.0  0.96289  0.68655  0.33156  1.0000
  C   C144      1.0  0.95116  0.67976  0.24907  1.0000
  H   H55       1.0  0.95962  0.68392  0.18936  1.0000
  H   H56       1.0  0.91992  0.66062  0.18675  1.0000
  H   H57       1.0  0.89600  0.68511  0.32884  1.0000
  H   H58       1.0  0.85940  0.68526  0.32862  1.0000
  H   H59       1.0  0.84521  0.62059  0.32404  1.0000
  H   H60       1.0  0.82557  0.58154  0.33020  1.0000
  H   H61       1.0  0.91950  0.62165  0.32897  1.0000
  H   H62       1.0  0.89809  0.57932  0.32981  1.0000
  H   H63       1.0  0.85753  0.53954  0.18774  1.0000
  H   H64       1.0  0.86199  0.50741  0.18998  1.0000
  H   H65       1.0  0.81122  0.51674  0.32264  1.0000
  H   H66       1.0  0.77485  0.51687  0.32157  1.0000
  H   H67       1.0  0.77226  0.62220  0.32414  1.0000
  H   H68       1.0  0.75110  0.57988  0.32506  1.0000
  H   H69       1.0  0.75143  0.54204  0.18492  1.0000
  H   H70       1.0  0.71432  0.51057  0.18384  1.0000
  H   H71       1.0  0.81589  0.66434  0.18532  1.0000
  H   H72       1.0  0.80051  0.68861  0.18370  1.0000
  N   N29       1.0  0.69172  0.48694  0.31792  1.0000
  N   N30       1.0  0.86209  0.48527  0.33855  1.0000
  N   N31       1.0  0.98515  0.69806  0.33849  1.0000
  N   N32       1.0  0.78514  0.70034  0.31672  1.0000
  C   C145      1.0  0.40082  0.21174  0.32801  1.0000
  C   C146      1.0  0.40074  0.19172  0.32772  1.0000
  C   C147      1.0  0.42280  0.19629  0.32649  1.0000
  N   N33       1.0  0.43534  0.21891  0.32603  1.0000
  C   C148      1.0  0.42293  0.22912  0.32714  1.0000
  C   C149      1.0  0.42979  0.25228  0.32773  1.0000
  C   C150      1.0  0.45241  0.26981  0.32810  1.0000
  N   N34       1.0  0.47106  0.26816  0.32767  1.0000
  C   C151      1.0  0.48984  0.28837  0.32891  1.0000
  C   C152      1.0  0.48283  0.30406  0.33009  1.0000
  C   C153      1.0  0.45981  0.29265  0.32948  1.0000
  C   C154      1.0  0.51231  0.29317  0.32886  1.0000
  C   C155      1.0  0.51897  0.27678  0.32752  1.0000
  N   N35       1.0  0.50638  0.25422  0.32828  1.0000
  C   C156      1.0  0.51886  0.24414  0.32668  1.0000
  C   C157      1.0  0.54100  0.26149  0.32434  1.0000
  C   C158      1.0  0.54107  0.28143  0.32498  1.0000
  C   C159      1.0  0.51206  0.22105  0.32683  1.0000
  C   C160      1.0  0.48953  0.20349  0.32658  1.0000
  N   N36       1.0  0.47082  0.20506  0.32670  1.0000
  C   C161      1.0  0.45209  0.18483  0.32623  1.0000
  C   C162      1.0  0.45935  0.16928  0.32540  1.0000
  C   C163      1.0  0.48236  0.18075  0.32600  1.0000
  C   C164      1.0  0.42951  0.17987  0.32642  1.0000
  C   C165      1.0  0.41270  0.15674  0.32668  1.0000
  C   C166      1.0  0.38416  0.10926  0.32380  1.0000
  C   C167      1.0  0.38939  0.12199  0.24396  1.0000
  C   C168      1.0  0.40357  0.14533  0.24508  1.0000
  C   C169      1.0  0.52918  0.21528  0.32696  1.0000
  C   C170      1.0  0.56688  0.20905  0.32509  1.0000
  C   C171      1.0  0.55568  0.20820  0.24463  1.0000
  C   C172      1.0  0.53715  0.21143  0.24527  1.0000
  C   C173      1.0  0.52955  0.31600  0.33057  1.0000
  C   C174      1.0  0.53885  0.32768  0.24956  1.0000
  C   C175      1.0  0.55776  0.34919  0.25100  1.0000
  C   C176      1.0  0.56782  0.35953  0.33345  1.0000
  C   C177      1.0  0.41312  0.25877  0.32914  1.0000
  C   C178      1.0  0.40595  0.26398  0.24835  1.0000
  C   C179      1.0  0.38533  0.27853  0.33258  1.0000
  C   C180      1.0  0.39222  0.27365  0.25006  1.0000
  H   H73       1.0  0.38813  0.27799  0.19039  1.0000
  H   H74       1.0  0.41145  0.26161  0.18768  1.0000
  H   H75       1.0  0.38682  0.21313  0.32916  1.0000
  H   H76       1.0  0.38667  0.17638  0.32866  1.0000
  H   H77       1.0  0.45135  0.22687  0.32492  1.0000
  H   H78       1.0  0.49039  0.24627  0.33126  1.0000
  H   H79       1.0  0.45028  0.30009  0.33030  1.0000
  H   H80       1.0  0.49261  0.32102  0.33121  1.0000
  H   H81       1.0  0.53248  0.32025  0.18889  1.0000
  H   H82       1.0  0.56461  0.35683  0.19118  1.0000
  H   H83       1.0  0.55519  0.29672  0.32342  1.0000
  H   H84       1.0  0.55505  0.26022  0.32213  1.0000
  H   H85       1.0  0.44973  0.15230  0.32446  1.0000
  H   H86       1.0  0.49205  0.17347  0.32553  1.0000
  H   H87       1.0  0.52993  0.21159  0.18550  1.0000
  H   H88       1.0  0.56140  0.20595  0.18425  1.0000
  H   H89       1.0  0.40776  0.15386  0.18544  1.0000
  H   H90       1.0  0.38352  0.11422  0.18342  1.0000
  N   N37       1.0  0.58500  0.20704  0.31819  1.0000
  N   N38       1.0  0.58666  0.37905  0.33974  1.0000
  N   N39       1.0  0.37384  0.28931  0.33958  1.0000
  N   N40       1.0  0.37161  0.08705  0.31623  1.0000
  C   C181      1.0  0.86019  0.19132  0.32726  1.0000
  C   C182      1.0  0.88021  0.21126  0.32690  1.0000
  C   C183      1.0  0.87564  0.22875  0.32548  1.0000
  N   N41       1.0  0.85302  0.21867  0.32492  1.0000
  C   C184      1.0  0.84281  0.19604  0.32620  1.0000
  C   C185      1.0  0.81965  0.17975  0.32679  1.0000
  C   C186      1.0  0.80212  0.18484  0.32704  1.0000
  N   N42       1.0  0.80377  0.20514  0.32658  1.0000
  C   C187      1.0  0.78356  0.20371  0.32774  1.0000
  C   C188      1.0  0.76787  0.18100  0.32890  1.0000
  C   C189      1.0  0.77928  0.16939  0.32840  1.0000
  C   C190      1.0  0.77875  0.22137  0.32767  1.0000
  C   C191      1.0  0.79514  0.24442  0.32635  1.0000
  N   N43       1.0  0.81769  0.25439  0.32694  1.0000
  C   C192      1.0  0.82778  0.27695  0.32533  1.0000
  C   C193      1.0  0.81042  0.28173  0.32326  1.0000
  C   C194      1.0  0.79048  0.26186  0.32404  1.0000
  C   C195      1.0  0.85086  0.29324  0.32529  1.0000
  C   C196      1.0  0.86842  0.28827  0.32502  1.0000
  N   N44       1.0  0.86686  0.26799  0.32533  1.0000
  C   C197      1.0  0.88710  0.26950  0.32487  1.0000
  C   C198      1.0  0.90264  0.29231  0.32384  1.0000
  C   C199      1.0  0.89117  0.30385  0.32431  1.0000
  C   C200      1.0  0.89205  0.25188  0.32527  1.0000
  C   C201      1.0  0.91519  0.25821  0.32567  1.0000
  C   C202      1.0  0.96267  0.27714  0.32311  1.0000
  C   C203      1.0  0.95001  0.26963  0.24319  1.0000
  C   C204      1.0  0.92667  0.26045  0.24416  1.0000
  C   C205      1.0  0.85664  0.31613  0.32537  1.0000
  C   C206      1.0  0.86286  0.36006  0.32357  1.0000
  C   C207      1.0  0.86369  0.34968  0.24305  1.0000
  C   C208      1.0  0.86047  0.32793  0.24366  1.0000
  C   C209      1.0  0.75591  0.21576  0.32953  1.0000
  C   C210      1.0  0.74426  0.21342  0.24861  1.0000
  C   C211      1.0  0.72274  0.21078  0.25024  1.0000
  C   C212      1.0  0.71237  0.21046  0.33279  1.0000
  C   C213      1.0  0.81316  0.15658  0.32835  1.0000
  C   C214      1.0  0.80804  0.14418  0.24764  1.0000
  C   C215      1.0  0.79338  0.10904  0.33209  1.0000
  C   C216      1.0  0.79833  0.12078  0.24949  1.0000
  H   H91       1.0  0.79407  0.11233  0.18986  1.0000
  H   H92       1.0  0.81044  0.15202  0.18690  1.0000
  H   H93       1.0  0.85881  0.17593  0.32857  1.0000
  H   H94       1.0  0.89555  0.21253  0.32799  1.0000
  H   H95       1.0  0.84506  0.22671  0.32365  1.0000
  H   H96       1.0  0.82565  0.24635  0.32940  1.0000
  H   H97       1.0  0.77184  0.15241  0.32918  1.0000
  H   H98       1.0  0.75091  0.17382  0.32996  1.0000
  H   H99       1.0  0.75172  0.21451  0.18788  1.0000
  H   H100      1.0  0.71513  0.21004  0.19049  1.0000
  H   H101      1.0  0.77519  0.26069  0.32260  1.0000
  H   H102      1.0  0.81170  0.29706  0.32113  1.0000
  H   H103      1.0  0.91962  0.29967  0.32289  1.0000
  H   H104      1.0  0.89845  0.32082  0.32371  1.0000
  H   H105      1.0  0.86030  0.32053  0.18386  1.0000
  H   H106      1.0  0.86594  0.35764  0.18267  1.0000
  H   H107      1.0  0.91820  0.25611  0.18449  1.0000
  H   H108      1.0  0.95785  0.27150  0.18273  1.0000
  N   N45       1.0  0.86487  0.38019  0.31672  1.0000
  N   N46       1.0  0.69286  0.20980  0.33927  1.0000
  N   N47       1.0  0.78261  0.08677  0.33919  1.0000
  N   N48       1.0  0.98489  0.28679  0.31568  1.0000
  C   C217      1.0  0.22739  0.59456  0.30471  1.0000
  C   C218      1.0  0.23409  0.61125  0.23754  1.0000
  C   C219      1.0  0.23626  0.63222  0.25737  1.0000
  O   O1        1.0  0.23976  0.60791  0.15340  1.0000
  O   O2        1.0  0.24411  0.64810  0.19169  1.0000
  H   H109      1.0  0.22627  0.60246  0.11640  1.0000
  H   H110      1.0  0.23117  0.64523  0.15482  1.0000
  C   C220      1.0  0.22543  0.57406  0.28334  1.0000
  H   H111      1.0  0.21907  0.56728  0.22396  1.0000
  C   C221      1.0  0.47738  0.63507  0.30598  1.0000
  C   C222      1.0  0.46073  0.62508  0.23878  1.0000
  C   C223      1.0  0.43974  0.60629  0.25858  1.0000
  O   O3        1.0  0.46415  0.63410  0.15465  1.0000
  O   O4        1.0  0.42391  0.59827  0.19288  1.0000
  H   H112      1.0  0.46960  0.62604  0.11766  1.0000
  H   H113      1.0  0.42681  0.58820  0.15603  1.0000
  C   C224      1.0  0.49791  0.65359  0.28463  1.0000
  H   H114      1.0  0.50471  0.65401  0.22522  1.0000
  C   C225      1.0  0.43688  0.84456  0.30571  1.0000
  C   C226      1.0  0.44696  0.83793  0.23858  1.0000
  C   C227      1.0  0.46573  0.83573  0.25856  1.0000
  O   O5        1.0  0.43806  0.83237  0.15434  1.0000
  O   O6        1.0  0.47383  0.82795  0.19291  1.0000
  H   H115      1.0  0.44617  0.84591  0.11748  1.0000
  H   H116      1.0  0.48395  0.84093  0.15619  1.0000
  C   C228      1.0  0.41840  0.84658  0.28418  1.0000
  H   H117      1.0  0.41806  0.85300  0.22481  1.0000
  C   C229      1.0  0.86702  0.45489  0.30659  1.0000
  C   C230      1.0  0.86036  0.43821  0.23943  1.0000
  C   C231      1.0  0.85818  0.41724  0.25926  1.0000
  O   O7        1.0  0.85478  0.44161  0.15529  1.0000
  O   O8        1.0  0.85037  0.40138  0.19358  1.0000
  H   H118      1.0  0.86830  0.44705  0.11828  1.0000
  H   H119      1.0  0.86334  0.40426  0.15671  1.0000
  C   C232      1.0  0.86903  0.47540  0.28520  1.0000
  H   H120      1.0  0.87542  0.48220  0.22579  1.0000
  C   C233      1.0  0.61705  0.41438  0.30780  1.0000
  C   C234      1.0  0.63376  0.42440  0.24061  1.0000
  C   C235      1.0  0.65472  0.44319  0.26044  1.0000
  O   O9        1.0  0.63042  0.41543  0.15647  1.0000
  O   O10       1.0  0.67061  0.45125  0.19474  1.0000
  H   H121      1.0  0.62498  0.42350  0.11949  1.0000
  H   H122      1.0  0.66774  0.46134  0.15790  1.0000
  C   C236      1.0  0.59655  0.39587  0.28643  1.0000
  H   H123      1.0  0.58978  0.39548  0.22709  1.0000
  C   C237      1.0  0.65754  0.20488  0.30762  1.0000
  C   C238      1.0  0.64753  0.21153  0.24046  1.0000
  C   C239      1.0  0.62874  0.21373  0.26041  1.0000
  O   O11       1.0  0.65650  0.21711  0.15622  1.0000
  O   O12       1.0  0.62069  0.22153  0.19472  1.0000
  H   H124      1.0  0.64842  0.20359  0.11938  1.0000
  H   H125      1.0  0.61060  0.20855  0.15802  1.0000
  C   C240      1.0  0.67604  0.20286  0.28611  1.0000
  H   H126      1.0  0.67644  0.19647  0.22674  1.0000
  C   C241      1.0  0.07075  0.32891  0.30595  1.0000
  C   C242      1.0  0.05499  0.32613  0.23875  1.0000
  C   C243      1.0  0.03192  0.31582  0.25844  1.0000
  O   O13       1.0  0.06188  0.33437  0.15413  1.0000
  O   O14       1.0  0.01791  0.31491  0.19212  1.0000
  H   H127      1.0  0.06072  0.32196  0.11787  1.0000
  H   H128      1.0  0.01411  0.30149  0.15666  1.0000
  C   C244      1.0  0.09343  0.33889  0.28387  1.0000
  H   H129      1.0  0.09747  0.33652  0.22233  1.0000
  C   C245      1.0  0.74301  0.74407  0.30711  1.0000
  C   C246      1.0  0.74582  0.73109  0.23991  1.0000
  C   C247      1.0  0.75614  0.71833  0.25958  1.0000
  O   O15       1.0  0.73762  0.72972  0.15532  1.0000
  O   O16       1.0  0.75708  0.70523  0.19327  1.0000
  H   H130      1.0  0.75005  0.74096  0.11902  1.0000
  H   H131      1.0  0.77051  0.71483  0.15776  1.0000
  C   C248      1.0  0.73305  0.75677  0.28505  1.0000
  H   H132      1.0  0.73545  0.76317  0.22350  1.0000
  C   C249      1.0  0.32788  0.00120  0.30592  1.0000
  C   C250      1.0  0.34093  0.01702  0.23885  1.0000
  C   C251      1.0  0.35368  0.04008  0.25871  1.0000
  O   O17       1.0  0.34239  0.01022  0.15423  1.0000
  O   O18       1.0  0.36684  0.05415  0.19252  1.0000
  H   H133      1.0  0.33118  0.01142  0.11789  1.0000
  H   H134      1.0  0.35727  0.05799  0.15701  1.0000
  C   C252      1.0  0.31522  0.97854  0.28369  1.0000
  H   H135      1.0  0.30889  0.97455  0.22209  1.0000
  C   C253      1.0  0.02367  0.72051  0.30562  1.0000
  C   C254      1.0  0.03945  0.72326  0.23834  1.0000
  C   C255      1.0  0.06252  0.73358  0.25787  1.0000
  O   O19       1.0  0.03260  0.71499  0.15383  1.0000
  O   O20       1.0  0.07655  0.73447  0.19153  1.0000
  H   H136      1.0  0.03377  0.72739  0.11744  1.0000
  H   H137      1.0  0.08036  0.74788  0.15589  1.0000
  C   C256      1.0  0.00099  0.71051  0.28371  1.0000
  H   H138      1.0  0.99697  0.71284  0.22214  1.0000
  C   C257      1.0  0.35143  0.30540  0.30676  1.0000
  C   C258      1.0  0.34872  0.31842  0.23950  1.0000
  C   C259      1.0  0.33839  0.33117  0.25904  1.0000
  O   O21       1.0  0.35704  0.31984  0.15499  1.0000
  O   O22       1.0  0.33755  0.34431  0.19269  1.0000
  H   H139      1.0  0.34466  0.30861  0.11859  1.0000
  H   H140      1.0  0.32416  0.33473  0.15706  1.0000
  C   C260      1.0  0.36143  0.29270  0.28483  1.0000
  H   H141      1.0  0.35911  0.28634  0.22328  1.0000
  C   C261      1.0  0.76655  0.04826  0.30661  1.0000
  C   C262      1.0  0.75358  0.03250  0.23941  1.0000
  C   C263      1.0  0.74082  0.00942  0.25906  1.0000
  O   O23       1.0  0.75223  0.03937  0.15481  1.0000
  O   O24       1.0  0.72773  0.99541  0.19276  1.0000
  H   H142      1.0  0.76349  0.03820  0.11851  1.0000
  H   H143      1.0  0.73735  0.99160  0.15725  1.0000
  C   C264      1.0  0.77925  0.07094  0.28456  1.0000
  H   H144      1.0  0.78566  0.07497  0.22299  1.0000
  C   C265      1.0  0.28759  0.38463  0.40592  1.0000
  C   C266      1.0  0.29687  0.37056  0.40485  1.0000
  C   C267      1.0  0.34910  0.51747  0.40560  1.0000
  C   C268      1.0  0.37081  0.53605  0.40476  1.0000
  C   C269      1.0  0.23521  0.53591  0.41128  1.0000
  C   C270      1.0  0.23775  0.51697  0.41013  1.0000
  C   C271      1.0  0.16740  0.38365  0.41004  1.0000
  C   C272      1.0  0.14400  0.37000  0.41171  1.0000
  H   H145      1.0  0.13601  0.36581  0.47261  1.0000
  H   H146      1.0  0.17577  0.38923  0.46959  1.0000
  H   H147      1.0  0.24002  0.51096  0.46964  1.0000
  H   H148      1.0  0.23550  0.54310  0.47178  1.0000
  H   H149      1.0  0.34075  0.51225  0.46549  1.0000
  H   H150      1.0  0.37780  0.54362  0.46444  1.0000
  H   H151      1.0  0.30201  0.36726  0.46432  1.0000
  H   H152      1.0  0.28664  0.39143  0.46572  1.0000
  C   C273      1.0  0.68722  0.90523  0.40663  1.0000
  C   C274      1.0  0.70129  0.92858  0.40542  1.0000
  C   C275      1.0  0.55439  0.83390  0.40630  1.0000
  C   C276      1.0  0.53580  0.83702  0.40533  1.0000
  C   C277      1.0  0.53600  0.70152  0.41251  1.0000
  C   C278      1.0  0.55494  0.72299  0.41135  1.0000
  C   C279      1.0  0.68821  0.78598  0.41124  1.0000
  C   C280      1.0  0.70185  0.77622  0.41291  1.0000
  H   H153      1.0  0.70600  0.77243  0.47381  1.0000
  H   H154      1.0  0.68258  0.78877  0.47079  1.0000
  H   H155      1.0  0.56091  0.73129  0.47086  1.0000
  H   H156      1.0  0.52878  0.69462  0.47303  1.0000
  H   H157      1.0  0.55955  0.83076  0.46624  1.0000
  H   H158      1.0  0.52818  0.83643  0.46496  1.0000
  H   H159      1.0  0.70455  0.93705  0.46483  1.0000
  H   H160      1.0  0.68036  0.89750  0.46644  1.0000
  C   C281      1.0  0.16667  0.78426  0.40478  1.0000
  C   C282      1.0  0.14332  0.77500  0.40370  1.0000
  C   C283      1.0  0.23795  0.72274  0.40452  1.0000
  C   C284      1.0  0.23480  0.70102  0.40365  1.0000
  C   C285      1.0  0.37029  0.83668  0.41151  1.0000
  C   C286      1.0  0.34880  0.83412  0.41010  1.0000
  C   C287      1.0  0.28584  0.90444  0.40954  1.0000
  C   C288      1.0  0.29562  0.92785  0.41132  1.0000
  H   H161      1.0  0.29932  0.93577  0.47225  1.0000
  H   H162      1.0  0.28299  0.89601  0.46905  1.0000
  H   H163      1.0  0.34043  0.83179  0.46952  1.0000
  H   H164      1.0  0.37710  0.83632  0.47210  1.0000
  H   H165      1.0  0.24100  0.73103  0.46446  1.0000
  H   H166      1.0  0.23532  0.69399  0.46332  1.0000
  H   H167      1.0  0.13484  0.76982  0.46317  1.0000
  H   H168      1.0  0.17438  0.78518  0.46459  1.0000
  C   C289      1.0  0.80670  0.66476  0.40700  1.0000
  C   C290      1.0  0.79745  0.67885  0.40585  1.0000
  C   C291      1.0  0.74523  0.53195  0.40744  1.0000
  C   C292      1.0  0.72352  0.51337  0.40663  1.0000
  C   C293      1.0  0.85914  0.51352  0.41303  1.0000
  C   C294      1.0  0.85661  0.53246  0.41184  1.0000
  C   C295      1.0  0.92699  0.66576  0.41064  1.0000
  C   C296      1.0  0.95039  0.67940  0.41209  1.0000
  H   H169      1.0  0.95835  0.68360  0.47292  1.0000
  H   H170      1.0  0.91859  0.66021  0.47028  1.0000
  H   H171      1.0  0.85424  0.53844  0.47132  1.0000
  H   H172      1.0  0.85878  0.50630  0.47355  1.0000
  H   H173      1.0  0.75352  0.53716  0.46734  1.0000
  H   H174      1.0  0.71648  0.50579  0.46632  1.0000
  H   H175      1.0  0.79222  0.68211  0.46527  1.0000
  H   H176      1.0  0.80757  0.65792  0.46681  1.0000
  C   C297      1.0  0.40706  0.14414  0.40707  1.0000
  C   C298      1.0  0.39299  0.12080  0.40568  1.0000
  C   C299      1.0  0.53995  0.21554  0.40795  1.0000
  C   C300      1.0  0.55854  0.21241  0.40705  1.0000
  C   C301      1.0  0.55837  0.34784  0.41420  1.0000
  C   C302      1.0  0.53944  0.32637  0.41299  1.0000
  C   C303      1.0  0.40607  0.26340  0.41159  1.0000
  C   C304      1.0  0.39242  0.27316  0.41309  1.0000
  H   H177      1.0  0.38818  0.27691  0.47393  1.0000
  H   H178      1.0  0.41159  0.26057  0.47122  1.0000
  H   H179      1.0  0.53340  0.31803  0.47246  1.0000
  H   H180      1.0  0.56555  0.35470  0.47474  1.0000
  H   H181      1.0  0.53473  0.21865  0.46788  1.0000
  H   H182      1.0  0.56611  0.21298  0.46669  1.0000
  H   H183      1.0  0.38965  0.11228  0.46503  1.0000
  H   H184      1.0  0.41382  0.15182  0.46697  1.0000
  C   C305      1.0  0.92770  0.26517  0.40615  1.0000
  C   C306      1.0  0.95105  0.27445  0.40490  1.0000
  C   C307      1.0  0.85640  0.32667  0.40641  1.0000
  C   C308      1.0  0.85951  0.34838  0.40552  1.0000
  C   C309      1.0  0.72404  0.21270  0.41344  1.0000
  C   C310      1.0  0.74551  0.21524  0.41204  1.0000
  C   C311      1.0  0.80846  0.14493  0.41088  1.0000
  C   C312      1.0  0.79870  0.12153  0.41251  1.0000
  H   H185      1.0  0.79491  0.11355  0.47340  1.0000
  H   H186      1.0  0.81125  0.15331  0.47045  1.0000
  H   H187      1.0  0.75384  0.21756  0.47146  1.0000
  H   H188      1.0  0.71716  0.21301  0.47404  1.0000
  H   H189      1.0  0.85328  0.31835  0.46634  1.0000
  H   H190      1.0  0.85894  0.35539  0.46521  1.0000
  H   H191      1.0  0.95950  0.27962  0.46430  1.0000
  H   H192      1.0  0.91996  0.26427  0.46598  1.0000
  C   C313      1.0  0.23159  0.63700  0.34491  1.0000
  C   C314      1.0  0.22474  0.62024  0.41193  1.0000
  C   C315      1.0  0.22258  0.59928  0.39210  1.0000
  O   O25       1.0  0.21500  0.58345  0.45799  1.0000
  H   H193      1.0  0.22798  0.58668  0.49531  1.0000
  O   O26       1.0  0.21935  0.62372  0.49637  1.0000
  H   H194      1.0  0.23285  0.62887  0.53309  1.0000
  C   C316      1.0  0.23489  0.65796  0.36759  1.0000
  H   H195      1.0  0.24213  0.66451  0.42610  1.0000
  C   C317      1.0  0.43489  0.59685  0.34613  1.0000
  C   C318      1.0  0.45160  0.60674  0.41317  1.0000
  C   C319      1.0  0.47259  0.62554  0.39336  1.0000
  O   O27       1.0  0.48837  0.63378  0.45927  1.0000
  H   H196      1.0  0.48512  0.64354  0.49657  1.0000
  O   O28       1.0  0.44805  0.59788  0.49761  1.0000
  H   H197      1.0  0.44289  0.60623  0.53430  1.0000
  C   C320      1.0  0.41392  0.57919  0.36876  1.0000
  H   H198      1.0  0.40731  0.57989  0.42723  1.0000
  C   C321      1.0  0.47505  0.84028  0.34623  1.0000
  C   C322      1.0  0.46506  0.84706  0.41319  1.0000
  C   C323      1.0  0.44629  0.84926  0.39320  1.0000
  O   O29       1.0  0.43796  0.85676  0.45906  1.0000
  H   H199      1.0  0.42815  0.84374  0.49622  1.0000
  O   O30       1.0  0.47381  0.85234  0.49774  1.0000
  H   H200      1.0  0.46541  0.83879  0.53430  1.0000
  C   C324      1.0  0.49268  0.83695  0.36901  1.0000
  H   H201      1.0  0.49192  0.82965  0.42747  1.0000
  C   C325      1.0  0.86277  0.41242  0.34679  1.0000
  C   C326      1.0  0.86957  0.42915  0.41381  1.0000
  C   C327      1.0  0.87176  0.45014  0.39398  1.0000
  O   O31       1.0  0.87929  0.46594  0.45986  1.0000
  H   H202      1.0  0.86627  0.46270  0.49717  1.0000
  O   O32       1.0  0.87488  0.42564  0.49825  1.0000
  H   H203      1.0  0.86135  0.42048  0.53497  1.0000
  C   C328      1.0  0.85944  0.39145  0.36947  1.0000
  H   H204      1.0  0.85215  0.38488  0.42797  1.0000
  C   C329      1.0  0.65949  0.45260  0.34799  1.0000
  C   C330      1.0  0.64272  0.44266  0.41503  1.0000
  C   C331      1.0  0.62175  0.42386  0.39521  1.0000
  O   O33       1.0  0.60591  0.41558  0.46111  1.0000
  H   H205      1.0  0.60914  0.40581  0.49839  1.0000
  O   O34       1.0  0.64619  0.45148  0.49949  1.0000
  H   H206      1.0  0.65133  0.44311  0.53616  1.0000
  C   C332      1.0  0.68044  0.47024  0.37065  1.0000
  H   H207      1.0  0.68699  0.46952  0.42910  1.0000
  C   C333      1.0  0.61934  0.20915  0.34806  1.0000
  C   C334      1.0  0.62926  0.20235  0.41506  1.0000
  C   C335      1.0  0.64805  0.20016  0.39511  1.0000
  O   O35       1.0  0.65633  0.19263  0.46099  1.0000
  H   H208      1.0  0.66611  0.20565  0.49813  1.0000
  O   O36       1.0  0.62044  0.19705  0.49961  1.0000
  H   H209      1.0  0.62881  0.21058  0.53614  1.0000
  C   C336      1.0  0.60169  0.21247  0.37081  1.0000
  H   H210      1.0  0.60240  0.21976  0.42925  1.0000
  C   C337      1.0  0.02371  0.30775  0.34613  1.0000
  C   C338      1.0  0.03944  0.31039  0.41319  1.0000
  C   C339      1.0  0.06252  0.32070  0.39349  1.0000
  O   O37       1.0  0.07657  0.32178  0.45994  1.0000
  H   H211      1.0  0.08005  0.33503  0.49599  1.0000
  O   O38       1.0  0.03253  0.30230  0.49797  1.0000
  H   H212      1.0  0.03400  0.31485  0.53415  1.0000
  C   C340      1.0  0.00120  0.29881  0.36915  1.0000
  H   H213      1.0  0.99772  0.30235  0.42968  1.0000
  C   C341      1.0  0.76418  0.71822  0.34724  1.0000
  C   C342      1.0  0.76149  0.73131  0.41430  1.0000
  C   C343      1.0  0.75119  0.74407  0.39463  1.0000
  O   O39       1.0  0.75007  0.75705  0.46107  1.0000
  H   H214      1.0  0.73680  0.74728  0.49716  1.0000
  O   O40       1.0  0.76955  0.73251  0.49907  1.0000
  H   H215      1.0  0.75698  0.72143  0.53528  1.0000
  C   C344      1.0  0.77311  0.70465  0.37024  1.0000
  H   H216      1.0  0.76955  0.69765  0.43080  1.0000
  C   C345      1.0  0.35370  0.04819  0.34641  1.0000
  C   C346      1.0  0.34054  0.03239  0.41335  1.0000
  C   C347      1.0  0.32780  0.00933  0.39350  1.0000
  O   O41       1.0  0.31476  0.99521  0.45982  1.0000
  H   H217      1.0  0.32450  0.99170  0.49591  1.0000
  O   O42       1.0  0.33926  0.03921  0.49815  1.0000
  H   H218      1.0  0.35031  0.03771  0.53438  1.0000
  C   C348      1.0  0.36725  0.07068  0.36960  1.0000
  H   H219      1.0  0.37421  0.07409  0.43019  1.0000
  C   C349      1.0  0.07068  0.74168  0.34545  1.0000
  C   C350      1.0  0.05493  0.73907  0.41257  1.0000
  C   C351      1.0  0.03186  0.72875  0.39305  1.0000
  O   O43       1.0  0.01778  0.72769  0.45954  1.0000
  H   H220      1.0  0.01429  0.71445  0.49575  1.0000
  O   O44       1.0  0.06181  0.74719  0.49726  1.0000
  H   H221      1.0  0.06032  0.73465  0.53356  1.0000
  C   C352      1.0  0.09319  0.75063  0.36832  1.0000
  H   H222      1.0  0.09664  0.74710  0.42887  1.0000
  C   C353      1.0  0.33023  0.33124  0.34662  1.0000
  C   C354      1.0  0.33281  0.31810  0.41374  1.0000
  C   C355      1.0  0.34313  0.30535  0.39420  1.0000
  O   O45       1.0  0.34415  0.29232  0.46068  1.0000
  H   H223      1.0  0.35736  0.30207  0.49688  1.0000
  O   O46       1.0  0.32462  0.31685  0.49841  1.0000
  H   H224      1.0  0.33714  0.32791  0.53474  1.0000
  C   C356      1.0  0.32127  0.34479  0.36949  1.0000
  H   H225      1.0  0.32475  0.35177  0.43006  1.0000
  C   C357      1.0  0.74069  0.00123  0.34671  1.0000
  C   C358      1.0  0.75376  0.01697  0.41379  1.0000
  C   C359      1.0  0.76653  0.04005  0.39412  1.0000
  O   O47       1.0  0.77949  0.05411  0.46058  1.0000
  H   H226      1.0  0.76971  0.05759  0.49666  1.0000
  O   O48       1.0  0.75494  0.01008  0.49855  1.0000
  H   H227      1.0  0.74385  0.01155  0.53476  1.0000
  C   C360      1.0  0.72710  0.97873  0.36972  1.0000
  H   H228      1.0  0.72006  0.97526  0.43024  1.0000
