data_image0
_chemical_formula_structural       HNC5HC5HCH2C2HNO2NHCHC2NO2C3HC2NO2C3HC9HC7HCH4C3H3C8HC7HCH4C4H4NO2NC3HNO2NC3HNO2NC3HNO2NC3HNO2NC5H2C2H2CHC3HNO2N2C3HNO2NC3HNO2NC3HNO2N
_chemical_formula_sum              "H42 N24 C96 O24"
_cell_length_a       30.9518
_cell_length_b       30.952
_cell_length_c       14.6993
_cell_angle_alpha    90.0002
_cell_angle_beta     89.9998
_cell_angle_gamma    120

_space_group_name_H-M_alt    "P 1"
_space_group_IT_number       1

loop_
  _space_group_symop_operation_xyz
  'x, y, z'

loop_
  _atom_site_type_symbol
  _atom_site_label
  _atom_site_symmetry_multiplicity
  _atom_site_fract_x
  _atom_site_fract_y
  _atom_site_fract_z
  _atom_site_occupancy
  H   H1        1.0  0.18639  0.56967  0.32904  1.0000
  N   N1        1.0  0.16504  0.77008  0.35084  1.0000
  C   C1        1.0  0.04335  0.60540  0.35392  1.0000
  C   C2        1.0  0.02701  0.68776  0.35673  1.0000
  C   C3        1.0  0.07723  0.69805  0.35782  1.0000
  C   C4        1.0  0.08444  0.65562  0.35689  1.0000
  C   C5        1.0  0.13211  0.66072  0.36466  1.0000
  H   H2        1.0  0.02050  0.71715  0.35560  1.0000
  C   C6        1.0  0.05132  0.56296  0.35392  1.0000
  C   C7        1.0  0.01745  0.47031  0.35796  1.0000
  C   C8        1.0  0.06766  0.48059  0.35681  1.0000
  C   C9        1.0  0.10963  0.52918  0.35279  1.0000
  C   C10       1.0  0.10081  0.57047  0.35428  1.0000
  H   H3        1.0  0.07416  0.45120  0.35566  1.0000
  C   C11       1.0  0.14022  0.62029  0.36280  1.0000
  H   H4        1.0  0.17615  0.62883  0.37347  1.0000
  H   H5        1.0  0.16250  0.69402  0.37696  1.0000
  C   C12       1.0  0.11481  0.74991  0.35843  1.0000
  C   C13       1.0  0.15830  0.53523  0.34502  1.0000
  H   H6        1.0  0.10320  0.77553  0.36285  1.0000
  N   N2        1.0  0.18148  0.41240  0.37788  1.0000
  O   O1        1.0  0.15165  0.39854  0.31198  1.0000
  O   O2        1.0  0.15834  0.41048  0.44938  1.0000
  N   N3        1.0  0.17213  0.50001  0.35450  1.0000
  H   H7        1.0  0.17088  0.85903  0.37185  1.0000
  C   C14       1.0  0.26303  0.54989  0.33845  1.0000
  H   H8        1.0  0.26191  0.58205  0.33070  1.0000
  C   C15       1.0  0.20631  0.81662  0.35068  1.0000
  C   C16       1.0  0.25393  0.82103  0.33866  1.0000
  N   N4        1.0  0.26247  0.78054  0.32775  1.0000
  O   O3        1.0  0.25305  0.75528  0.39931  1.0000
  O   O4        1.0  0.23924  0.75317  0.26136  1.0000
  C   C17       1.0  0.21829  0.50392  0.35123  1.0000
  C   C18       1.0  0.22277  0.46068  0.36351  1.0000
  C   C19       1.0  0.27040  0.46449  0.36252  1.0000
  H   H9        1.0  0.27251  0.43288  0.37192  1.0000
  C   C20       1.0  0.24843  0.90877  0.36348  1.0000
  C   C21       1.0  0.20461  0.86114  0.36247  1.0000
  N   N5        1.0  0.24143  0.95005  0.37782  1.0000
  O   O5        1.0  0.25741  0.97988  0.31192  1.0000
  O   O6        1.0  0.26265  0.97320  0.44933  1.0000
  C   C22       1.0  0.31491  0.51072  0.35069  1.0000
  C   C23       1.0  0.31049  0.55392  0.33862  1.0000
  C   C24       1.0  0.29737  0.86849  0.33851  1.0000
  H   H10       1.0  0.33065  0.86961  0.33079  1.0000
  C   C25       1.0  0.29614  0.91323  0.35125  1.0000
  C   C26       1.0  0.52613  0.55899  0.35386  1.0000
  C   C27       1.0  0.53364  0.51701  0.35426  1.0000
  C   C28       1.0  0.49235  0.46690  0.35279  1.0000
  C   C29       1.0  0.44376  0.46028  0.35673  1.0000
  C   C30       1.0  0.43347  0.50021  0.35787  1.0000
  C   C31       1.0  0.47590  0.54985  0.35689  1.0000
  C   C32       1.0  0.58345  0.52741  0.36294  1.0000
  C   C33       1.0  0.47081  0.59242  0.36484  1.0000
  H   H11       1.0  0.41437  0.42438  0.35569  1.0000
  C   C34       1.0  0.56856  0.60939  0.35387  1.0000
  C   C35       1.0  0.61878  0.61852  0.35696  1.0000
  C   C36       1.0  0.66121  0.66817  0.35793  1.0000
  C   C37       1.0  0.65092  0.70810  0.35675  1.0000
  C   C38       1.0  0.60233  0.70148  0.35276  1.0000
  C   C39       1.0  0.56104  0.65136  0.35426  1.0000
  C   C40       1.0  0.62387  0.57596  0.36494  1.0000
  H   H12       1.0  0.68031  0.74400  0.35569  1.0000
  C   C41       1.0  0.51123  0.64096  0.36279  1.0000
  H   H13       1.0  0.65716  0.57889  0.37759  1.0000
  H   H14       1.0  0.59198  0.50005  0.37397  1.0000
  H   H15       1.0  0.50270  0.66833  0.37383  1.0000
  H   H16       1.0  0.43752  0.58949  0.37739  1.0000
  C   C42       1.0  0.59627  0.74409  0.34500  1.0000
  C   C43       1.0  0.71306  0.68244  0.35855  1.0000
  C   C44       1.0  0.49842  0.42428  0.34504  1.0000
  H   H17       1.0  0.56182  0.73772  0.32903  1.0000
  H   H18       1.0  0.73868  0.71966  0.36297  1.0000
  H   H19       1.0  0.53287  0.43066  0.32909  1.0000
  C   C45       1.0  0.57255  0.08817  0.35386  1.0000
  C   C46       1.0  0.61452  0.13766  0.35426  1.0000
  C   C47       1.0  0.66463  0.14648  0.35278  1.0000
  C   C48       1.0  0.67125  0.10451  0.35681  1.0000
  C   C49       1.0  0.63132  0.05430  0.35796  1.0000
  C   C50       1.0  0.58167  0.04708  0.35698  1.0000
  C   C51       1.0  0.60412  0.17707  0.36285  1.0000
  C   C52       1.0  0.53912  0.99942  0.36502  1.0000
  H   H20       1.0  0.70715  0.11102  0.35571  1.0000
  C   C53       1.0  0.52214  0.08020  0.35386  1.0000
  C   C54       1.0  0.51302  0.12130  0.35687  1.0000
  C   C55       1.0  0.46337  0.11408  0.35786  1.0000
  C   C56       1.0  0.42344  0.06387  0.35675  1.0000
  C   C57       1.0  0.43006  0.02189  0.35283  1.0000
  C   C58       1.0  0.48017  0.03072  0.35430  1.0000
  C   C59       1.0  0.55558  0.16896  0.36475  1.0000
  H   H21       1.0  0.38754  0.05735  0.35571  1.0000
  C   C60       1.0  0.49057  0.99131  0.36305  1.0000
  H   H22       1.0  0.55265  0.19932  0.37737  1.0000
  H   H23       1.0  0.63150  0.21297  0.37380  1.0000
  H   H24       1.0  0.46320  0.95543  0.37426  1.0000
  H   H25       1.0  0.54204  0.96909  0.37793  1.0000
  C   C61       1.0  0.64559  0.01671  0.35858  1.0000
  C   C62       1.0  0.38745  0.97321  0.34509  1.0000
  C   C63       1.0  0.44909  0.15166  0.35850  1.0000
  C   C64       1.0  0.70725  0.19516  0.34501  1.0000
  H   H26       1.0  0.68281  0.02830  0.36305  1.0000
  H   H27       1.0  0.39382  0.94513  0.32917  1.0000
  H   H28       1.0  0.41187  0.14006  0.36294  1.0000
  H   H29       1.0  0.70088  0.22323  0.32901  1.0000
  N   N6        1.0  0.35099  0.60296  0.32768  1.0000
  O   O7        1.0  0.37623  0.61881  0.39925  1.0000
  O   O8        1.0  0.37837  0.60707  0.26133  1.0000
  N   N7        1.0  0.36145  0.51599  0.35086  1.0000
  C   C65       1.0  0.62078  0.92521  0.35067  1.0000
  C   C66       1.0  0.57759  0.87761  0.33853  1.0000
  C   C67       1.0  0.58161  0.83417  0.33835  1.0000
  H   H30       1.0  0.54945  0.80089  0.33055  1.0000
  N   N8        1.0  0.52856  0.86908  0.32754  1.0000
  O   O9        1.0  0.51267  0.87842  0.39912  1.0000
  O   O10       1.0  0.52447  0.89239  0.26125  1.0000
  N   N9        1.0  0.61551  0.96649  0.35087  1.0000
  C   C68       1.0  0.77976  0.65764  0.35071  1.0000
  C   C69       1.0  0.78417  0.61444  0.33864  1.0000
  C   C70       1.0  0.83163  0.61846  0.33847  1.0000
  H   H31       1.0  0.83275  0.58629  0.33070  1.0000
  N   N10       1.0  0.74368  0.56540  0.32770  1.0000
  O   O11       1.0  0.71844  0.54955  0.39928  1.0000
  O   O12       1.0  0.71629  0.56129  0.26136  1.0000
  N   N11       1.0  0.73322  0.65237  0.35090  1.0000
  C   C71       1.0  0.47389  0.24316  0.35066  1.0000
  C   C72       1.0  0.51709  0.29077  0.33856  1.0000
  C   C73       1.0  0.51307  0.33421  0.33840  1.0000
  H   H32       1.0  0.54523  0.36749  0.33063  1.0000
  N   N12       1.0  0.56612  0.29931  0.32760  1.0000
  O   O13       1.0  0.58199  0.28993  0.39916  1.0000
  O   O14       1.0  0.57022  0.27603  0.26125  1.0000
  N   N13       1.0  0.47916  0.20189  0.35083  1.0000
  C   C74       1.0  0.88837  0.35176  0.35068  1.0000
  C   C75       1.0  0.84076  0.34735  0.33858  1.0000
  C   C76       1.0  0.79732  0.29988  0.33841  1.0000
  H   H33       1.0  0.76404  0.29876  0.33064  1.0000
  N   N14       1.0  0.83222  0.38784  0.32763  1.0000
  O   O15       1.0  0.84159  0.41307  0.39921  1.0000
  O   O16       1.0  0.85551  0.41523  0.26131  1.0000
  N   N15       1.0  0.92964  0.39830  0.35088  1.0000
  C   C77       1.0  0.99387  0.59789  0.35438  1.0000
  C   C78       1.0  0.98504  0.63917  0.35283  1.0000
  C   C79       1.0  0.95447  0.54808  0.36316  1.0000
  C   C80       1.0  0.01023  0.51275  0.35703  1.0000
  C   C81       1.0  0.96257  0.50764  0.36490  1.0000
  H   H34       1.0  0.93222  0.47436  0.37767  1.0000
  H   H35       1.0  0.91856  0.53955  0.37400  1.0000
  C   C82       1.0  0.97987  0.41846  0.35854  1.0000
  C   C83       1.0  0.93636  0.63311  0.34511  1.0000
  H   H36       1.0  0.99146  0.39284  0.36296  1.0000
  H   H37       1.0  0.90828  0.59865  0.32919  1.0000
  C   C84       1.0  0.38162  0.48593  0.35850  1.0000
  H   H38       1.0  0.35600  0.44870  0.36296  1.0000
  C   C85       1.0  0.62758  0.83539  0.35120  1.0000
  C   C86       1.0  0.67081  0.88310  0.36353  1.0000
  C   C87       1.0  0.66700  0.92692  0.36254  1.0000
  H   H39       1.0  0.69861  0.96064  0.37201  1.0000
  N   N16       1.0  0.71909  0.89010  0.37796  1.0000
  O   O17       1.0  0.73298  0.87415  0.31208  1.0000
  O   O18       1.0  0.72098  0.86885  0.44947  1.0000
  N   N17       1.0  0.63149  0.79315  0.35447  1.0000
  N   N18       1.0  0.33839  0.95939  0.35452  1.0000
  C   C88       1.0  0.87638  0.66443  0.35125  1.0000
  C   C89       1.0  0.87191  0.70767  0.36352  1.0000
  C   C90       1.0  0.82428  0.70386  0.36252  1.0000
  H   H40       1.0  0.82217  0.73547  0.37194  1.0000
  N   N19       1.0  0.91319  0.75595  0.37788  1.0000
  O   O19       1.0  0.94302  0.76981  0.31200  1.0000
  O   O20       1.0  0.93634  0.75787  0.44940  1.0000
  N   N20       1.0  0.92253  0.66834  0.35453  1.0000
  C   C91       1.0  0.46710  0.33298  0.35121  1.0000
  C   C92       1.0  0.42386  0.28527  0.36351  1.0000
  C   C93       1.0  0.42767  0.24145  0.36250  1.0000
  H   H41       1.0  0.39606  0.20773  0.37193  1.0000
  N   N21       1.0  0.37558  0.27828  0.37791  1.0000
  O   O21       1.0  0.36171  0.29424  0.31203  1.0000
  O   O22       1.0  0.37368  0.29951  0.44942  1.0000
  N   N22       1.0  0.46319  0.37523  0.35449  1.0000
  C   C94       1.0  0.79855  0.25514  0.35122  1.0000
  C   C95       1.0  0.84626  0.25962  0.36352  1.0000
  C   C96       1.0  0.89008  0.30725  0.36252  1.0000
  H   H42       1.0  0.92381  0.30936  0.37196  1.0000
  N   N23       1.0  0.85326  0.21834  0.37792  1.0000
  O   O23       1.0  0.83730  0.18850  0.31203  1.0000
  O   O24       1.0  0.83202  0.19520  0.44942  1.0000
  N   N24       1.0  0.75631  0.20899  0.35449  1.0000
