data_image0
_chemical_formula_structural       HNC2H2C3HNH2CHC2H2C3HNH2CHC2H2C3H3CHC6H3N3C6H3N3C7H3NH2CHC7H3NH2CHC7H3NHCH
_chemical_formula_sum              "H42 N12 C54"
_cell_length_a       29.3884
_cell_length_b       29.3884
_cell_length_c       14.9792
_cell_angle_alpha    90
_cell_angle_beta     90
_cell_angle_gamma    120

_space_group_name_H-M_alt    "P 1"
_space_group_IT_number       1

loop_
  _space_group_symop_operation_xyz
  'x, y, z'

loop_
  _atom_site_type_symbol
  _atom_site_label
  _atom_site_symmetry_multiplicity
  _atom_site_fract_x
  _atom_site_fract_y
  _atom_site_fract_z
  _atom_site_occupancy
  H   H1        1.0  0.01331  0.53491  0.51268  1.0000
  N   N1        1.0  0.01856  0.60402  0.28228  1.0000
  C   C1        1.0  0.52921  0.46923  0.27573  1.0000
  C   C2        1.0  0.56364  0.44930  0.28365  1.0000
  H   H2        1.0  0.52236  0.47909  0.21358  1.0000
  H   H3        1.0  0.58116  0.44549  0.22727  1.0000
  C   C3        1.0  0.40671  0.54386  0.31777  1.0000
  C   C4        1.0  0.38803  0.49073  0.29435  1.0000
  C   C5        1.0  0.41900  0.46648  0.30466  1.0000
  H   H4        1.0  0.35058  0.46872  0.26999  1.0000
  N   N2        1.0  0.39771  0.41489  0.28227  1.0000
  H   H5        1.0  0.41684  0.39613  0.28993  1.0000
  H   H6        1.0  0.36203  0.39472  0.25933  1.0000
  C   C6        1.0  0.37412  0.56533  0.30732  1.0000
  H   H7        1.0  0.34054  0.54483  0.27404  1.0000
  C   C7        1.0  0.53252  0.06034  0.27574  1.0000
  C   C8        1.0  0.55243  0.11468  0.28365  1.0000
  H   H8        1.0  0.52268  0.04363  0.21358  1.0000
  H   H9        1.0  0.55629  0.13603  0.22727  1.0000
  C   C9        1.0  0.45787  0.86320  0.31779  1.0000
  C   C10       1.0  0.51101  0.89765  0.29438  1.0000
  C   C11       1.0  0.53525  0.95287  0.30468  1.0000
  H   H10       1.0  0.53301  0.88221  0.26999  1.0000
  N   N3        1.0  0.58684  0.98317  0.28228  1.0000
  H   H11       1.0  0.60560  0.02107  0.28987  1.0000
  H   H12       1.0  0.60701  0.96767  0.25927  1.0000
  C   C12       1.0  0.43640  0.80914  0.30733  1.0000
  H   H13       1.0  0.45689  0.79606  0.27403  1.0000
  C   C13       1.0  0.94140  0.47252  0.27573  1.0000
  C   C14       1.0  0.88706  0.43810  0.28365  1.0000
  H   H14       1.0  0.95812  0.47938  0.21358  1.0000
  H   H15       1.0  0.86572  0.42058  0.22726  1.0000
  C   C15       1.0  0.13853  0.59502  0.31781  1.0000
  C   C16       1.0  0.10408  0.61371  0.29438  1.0000
  C   C17       1.0  0.04887  0.58273  0.30468  1.0000
  H   H16       1.0  0.11953  0.65115  0.27003  1.0000
  H   H17       1.0  0.98067  0.58489  0.28994  1.0000
  H   H18       1.0  0.03407  0.63970  0.25934  1.0000
  C   C18       1.0  0.19260  0.62762  0.30739  1.0000
  H   H19       1.0  0.20568  0.66121  0.27412  1.0000
  C   C19       1.0  0.35965  0.63690  0.33647  1.0000
  C   C20       1.0  0.30418  0.61228  0.33741  1.0000
  C   C21       1.0  0.27863  0.64209  0.33657  1.0000
  C   C22       1.0  0.30948  0.69756  0.33744  1.0000
  C   C23       1.0  0.36484  0.72310  0.33651  1.0000
  C   C24       1.0  0.38946  0.69225  0.33738  1.0000
  H   H20       1.0  0.29145  0.71966  0.33933  1.0000
  H   H21       1.0  0.42960  0.71028  0.33926  1.0000
  H   H22       1.0  0.28207  0.57214  0.33929  1.0000
  N   N4        1.0  0.38565  0.61062  0.33870  1.0000
  N   N5        1.0  0.22636  0.61610  0.33877  1.0000
  N   N6        1.0  0.39112  0.77538  0.33874  1.0000
  C   C25       1.0  0.63708  0.35903  0.32946  1.0000
  C   C26       1.0  0.69256  0.38917  0.32846  1.0000
  C   C27       1.0  0.72333  0.36466  0.32948  1.0000
  C   C28       1.0  0.69800  0.30917  0.32846  1.0000
  C   C29       1.0  0.64270  0.27840  0.32946  1.0000
  C   C30       1.0  0.61257  0.30374  0.32845  1.0000
  H   H23       1.0  0.72007  0.29108  0.32752  1.0000
  H   H24       1.0  0.57239  0.28166  0.32751  1.0000
  H   H25       1.0  0.71066  0.42934  0.32753  1.0000
  N   N7        1.0  0.60695  0.38086  0.32820  1.0000
  N   N8        1.0  0.77530  0.39479  0.32822  1.0000
  N   N9        1.0  0.62087  0.22644  0.32820  1.0000
  C   C31       1.0  0.57482  0.43599  0.36815  1.0000
  C   C32       1.0  0.55062  0.44302  0.44432  1.0000
  C   C33       1.0  0.51522  0.46240  0.43778  1.0000
  C   C34       1.0  0.50474  0.47592  0.35188  1.0000
  C   C35       1.0  0.47083  0.49691  0.33928  1.0000
  C   C36       1.0  0.49001  0.55010  0.36205  1.0000
  C   C37       1.0  0.45845  0.57317  0.35162  1.0000
  H   H26       1.0  0.52728  0.57261  0.38675  1.0000
  H   H27       1.0  0.47388  0.61178  0.36908  1.0000
  H   H28       1.0  0.55853  0.43337  0.50588  1.0000
  N   N10       1.0  0.49226  0.46684  0.51371  1.0000
  H   H29       1.0  0.49967  0.45696  0.57162  1.0000
  H   H30       1.0  0.46680  0.47873  0.51266  1.0000
  C   C38       1.0  0.61012  0.41818  0.37746  1.0000
  H   H31       1.0  0.63695  0.43334  0.42576  1.0000
  C   C39       1.0  0.56575  0.13918  0.36815  1.0000
  C   C40       1.0  0.55869  0.10795  0.44433  1.0000
  C   C41       1.0  0.53932  0.05317  0.43779  1.0000
  C   C42       1.0  0.52581  0.02917  0.35189  1.0000
  C   C43       1.0  0.50483  0.97428  0.33930  1.0000
  C   C44       1.0  0.45164  0.94026  0.36207  1.0000
  C   C45       1.0  0.42857  0.88563  0.35165  1.0000
  H   H32       1.0  0.42913  0.95502  0.38678  1.0000
  H   H33       1.0  0.38995  0.86245  0.36910  1.0000
  H   H34       1.0  0.56833  0.12551  0.50590  1.0000
  N   N11       1.0  0.53485  0.02577  0.51373  1.0000
  H   H35       1.0  0.54485  0.04309  0.57161  1.0000
  H   H36       1.0  0.52310  0.98845  0.51264  1.0000
  C   C46       1.0  0.58356  0.19230  0.37747  1.0000
  H   H37       1.0  0.56839  0.20396  0.42576  1.0000
  C   C47       1.0  0.86255  0.42690  0.36814  1.0000
  C   C48       1.0  0.89378  0.45109  0.44432  1.0000
  C   C49       1.0  0.94856  0.48650  0.43779  1.0000
  C   C50       1.0  0.97257  0.49699  0.35189  1.0000
  C   C51       1.0  0.02746  0.53090  0.33930  1.0000
  C   C52       1.0  0.06147  0.51172  0.36208  1.0000
  C   C53       1.0  0.11610  0.54328  0.35166  1.0000
  H   H38       1.0  0.04671  0.47445  0.38677  1.0000
  H   H39       1.0  0.13929  0.52786  0.36913  1.0000
  H   H40       1.0  0.87622  0.44317  0.50588  1.0000
  N   N12       1.0  0.97596  0.50945  0.51373  1.0000
  H   H41       1.0  0.95867  0.50203  0.57163  1.0000
  C   C54       1.0  0.80944  0.39160  0.37745  1.0000
  H   H42       1.0  0.79778  0.36475  0.42572  1.0000
