data_image0
_chemical_formula_structural       CNC2NC4NC18H14C2NC16H12C3NC2NC5NC4NC18H14CNC16H12C11H11CNCNC4NC16H13C2H2O2HC2H2O2HC2H2O2HC2H2O2HC2H2O2HC2H2O2HC2H2O2HC2H2O2HC2H2O2HC2H2O2HC2H2O2HC2H2O2HC7NC12H12C2NC3NC3NC18H14C12H12C3NC3NC3NC18H14C3NC3NC2NC5NC20H15C8NC14H13C4NC2NOHC5NC2NOHC5NC2NOHC5NC2NOHC5NC2NOHC5NC2NOHC5NC2NHCOC4NC2NHCOC4NC2NHCOC4NC2NHCOC4NC2NHCOC4NC2NHCO
_chemical_formula_sum              "C372 N48 H204 O36"
_cell_length_a       57.1781
_cell_length_b       57.1781
_cell_length_c       15.0101
_cell_angle_alpha    90.0018
_cell_angle_beta     89.9654
_cell_angle_gamma    120

_space_group_name_H-M_alt    "P 1"
_space_group_IT_number       1

loop_
  _space_group_symop_operation_xyz
  'x, y, z'

loop_
  _atom_site_type_symbol
  _atom_site_label
  _atom_site_symmetry_multiplicity
  _atom_site_fract_x
  _atom_site_fract_y
  _atom_site_fract_z
  _atom_site_occupancy
  C   C1        1.0  0.28472  0.52756  0.34713  1.0000
  N   N1        1.0  0.27609  0.48622  0.32372  1.0000
  C   C2        1.0  0.30337  0.50123  0.33197  1.0000
  C   C3        1.0  0.32360  0.49371  0.32294  1.0000
  N   N2        1.0  0.29310  0.44370  0.32287  1.0000
  C   C4        1.0  0.29503  0.42108  0.31848  1.0000
  C   C5        1.0  0.32261  0.43005  0.31066  1.0000
  C   C6        1.0  0.33627  0.45780  0.30567  1.0000
  C   C7        1.0  0.27385  0.39370  0.32409  1.0000
  N   N3        1.0  0.23365  0.40070  0.32153  1.0000
  C   C8        1.0  0.20634  0.38560  0.32811  1.0000
  C   C9        1.0  0.22485  0.35907  0.33906  1.0000
  C   C10       1.0  0.21479  0.46602  0.31744  1.0000
  C   C11       1.0  0.23582  0.49326  0.32703  1.0000
  C   C12       1.0  0.22836  0.51373  0.33487  1.0000
  C   C13       1.0  0.21598  0.51971  0.26388  1.0000
  C   C14       1.0  0.20971  0.54050  0.27144  1.0000
  C   C15       1.0  0.21780  0.55801  0.34649  1.0000
  C   C16       1.0  0.14635  0.35138  0.26584  1.0000
  C   C17       1.0  0.11924  0.33085  0.27558  1.0000
  C   C18       1.0  0.28125  0.37316  0.32789  1.0000
  C   C19       1.0  0.29836  0.33361  0.33905  1.0000
  C   C20       1.0  0.30433  0.35079  0.26376  1.0000
  C   C21       1.0  0.29485  0.36912  0.25623  1.0000
  C   C22       1.0  0.35148  0.51483  0.32244  1.0000
  C   C23       1.0  0.36083  0.53617  0.25999  1.0000
  C   C24       1.0  0.38660  0.55911  0.26857  1.0000
  C   C25       1.0  0.40516  0.56067  0.33430  1.0000
  H   H1        1.0  0.39132  0.57507  0.22712  1.0000
  H   H2        1.0  0.34809  0.53623  0.21220  1.0000
  H   H3        1.0  0.28357  0.54468  0.35453  1.0000
  H   H4        1.0  0.26677  0.46750  0.30675  1.0000
  H   H5        1.0  0.24311  0.41964  0.30748  1.0000
  H   H6        1.0  0.35672  0.46936  0.29881  1.0000
  H   H7        1.0  0.33189  0.41878  0.30791  1.0000
  H   H8        1.0  0.29947  0.38078  0.20007  1.0000
  H   H9        1.0  0.31623  0.35067  0.21318  1.0000
  H   H10       1.0  0.22603  0.34190  0.34409  1.0000
  H   H11       1.0  0.15747  0.35013  0.21451  1.0000
  H   H12       1.0  0.11174  0.31518  0.23125  1.0000
  H   H13       1.0  0.19998  0.54326  0.21895  1.0000
  H   H14       1.0  0.21129  0.50881  0.20602  1.0000
  C   C26       1.0  0.53873  0.75706  0.34893  1.0000
  C   C27       1.0  0.56504  0.80201  0.33336  1.0000
  N   N4        1.0  0.62253  0.84924  0.32346  1.0000
  C   C28       1.0  0.64515  0.87380  0.31891  1.0000
  C   C29       1.0  0.63618  0.89240  0.31084  1.0000
  C   C30       1.0  0.60842  0.87829  0.30590  1.0000
  C   C31       1.0  0.67252  0.88000  0.32457  1.0000
  C   C32       1.0  0.68064  0.82060  0.32846  1.0000
  C   C33       1.0  0.70716  0.86564  0.33917  1.0000
  C   C34       1.0  0.60021  0.74862  0.31824  1.0000
  C   C35       1.0  0.54652  0.69617  0.26432  1.0000
  C   C36       1.0  0.52573  0.66909  0.27180  1.0000
  C   C37       1.0  0.71485  0.79480  0.26634  1.0000
  C   C38       1.0  0.73537  0.78821  0.27603  1.0000
  C   C39       1.0  0.69307  0.90795  0.32825  1.0000
  C   C40       1.0  0.71545  0.95337  0.26395  1.0000
  C   C41       1.0  0.69713  0.92555  0.25649  1.0000
  C   C42       1.0  0.53001  0.82435  0.26082  1.0000
  C   C43       1.0  0.50709  0.82721  0.26920  1.0000
  H   H15       1.0  0.49114  0.81595  0.22780  1.0000
  H   H16       1.0  0.52999  0.81153  0.21314  1.0000
  H   H17       1.0  0.52158  0.73878  0.35617  1.0000
  H   H18       1.0  0.59685  0.88716  0.29873  1.0000
  H   H19       1.0  0.64744  0.91295  0.30788  1.0000
  H   H20       1.0  0.68546  0.91850  0.20040  1.0000
  H   H21       1.0  0.71556  0.96537  0.21336  1.0000
  H   H22       1.0  0.72433  0.88400  0.34430  1.0000
  H   H23       1.0  0.71610  0.80714  0.21496  1.0000
  H   H24       1.0  0.75104  0.79635  0.23164  1.0000
  H   H25       1.0  0.52300  0.65663  0.21923  1.0000
  H   H26       1.0  0.55741  0.70240  0.20643  1.0000
  C   C44       1.0  0.28514  0.75757  0.35018  1.0000
  C   C45       1.0  0.30924  0.78151  0.34702  1.0000
  C   C46       1.0  0.30383  0.80251  0.33279  1.0000
  N   N5        1.0  0.27654  0.79016  0.32368  1.0000
  C   C47       1.0  0.26428  0.76287  0.33190  1.0000
  C   C48       1.0  0.23654  0.74264  0.32274  1.0000
  N   N6        1.0  0.21702  0.77313  0.32249  1.0000
  C   C49       1.0  0.19246  0.77119  0.31811  1.0000
  C   C50       1.0  0.17385  0.74361  0.31056  1.0000
  C   C51       1.0  0.18795  0.72996  0.30566  1.0000
  C   C52       1.0  0.18626  0.79237  0.32366  1.0000
  C   C53       1.0  0.20614  0.82032  0.32778  1.0000
  N   N7        1.0  0.23344  0.83260  0.32078  1.0000
  C   C54       1.0  0.24565  0.85991  0.32729  1.0000
  C   C55       1.0  0.22467  0.86537  0.34078  1.0000
  C   C56       1.0  0.20059  0.84138  0.33757  1.0000
  C   C57       1.0  0.27349  0.87990  0.32084  1.0000
  N   N8        1.0  0.29304  0.84942  0.32138  1.0000
  C   C58       1.0  0.31766  0.85147  0.31767  1.0000
  C   C59       1.0  0.32386  0.83042  0.32686  1.0000
  C   C60       1.0  0.35178  0.83787  0.33476  1.0000
  C   C61       1.0  0.37017  0.85028  0.26381  1.0000
  C   C62       1.0  0.39724  0.85656  0.27144  1.0000
  C   C63       1.0  0.40662  0.84846  0.34655  1.0000
  C   C64       1.0  0.28086  0.90781  0.32745  1.0000
  C   C65       1.0  0.27154  0.91996  0.26554  1.0000
  C   C66       1.0  0.27811  0.94706  0.27538  1.0000
  C   C67       1.0  0.29588  0.96373  0.34332  1.0000
  C   C68       1.0  0.15831  0.78497  0.32745  1.0000
  C   C69       1.0  0.10165  0.76786  0.33863  1.0000
  C   C70       1.0  0.11287  0.76186  0.26341  1.0000
  C   C71       1.0  0.14069  0.77133  0.25587  1.0000
  C   C72       1.0  0.22978  0.71477  0.32232  1.0000
  C   C73       1.0  0.24178  0.70542  0.25985  1.0000
  C   C74       1.0  0.23898  0.67967  0.26853  1.0000
  C   C75       1.0  0.22194  0.66108  0.33423  1.0000
  H   H27       1.0  0.25020  0.67495  0.22702  1.0000
  H   H28       1.0  0.25461  0.71819  0.21210  1.0000
  H   H29       1.0  0.32752  0.78266  0.35438  1.0000
  H   H30       1.0  0.26718  0.79948  0.30622  1.0000
  H   H31       1.0  0.24298  0.82311  0.30815  1.0000
  H   H32       1.0  0.17907  0.70950  0.29877  1.0000
  H   H33       1.0  0.15330  0.73432  0.30787  1.0000
  H   H34       1.0  0.14772  0.76667  0.19979  1.0000
  H   H35       1.0  0.10086  0.74992  0.21296  1.0000
  H   H36       1.0  0.18222  0.84018  0.34253  1.0000
  H   H37       1.0  0.25928  0.90890  0.21399  1.0000
  H   H38       1.0  0.27003  0.95461  0.23088  1.0000
  H   H39       1.0  0.40976  0.86632  0.21899  1.0000
  H   H40       1.0  0.36400  0.85500  0.20593  1.0000
  C   C76       1.0  0.78506  0.54283  0.33292  1.0000
  N   N9        1.0  0.79533  0.60037  0.32387  1.0000
  C   C77       1.0  0.79339  0.62299  0.31945  1.0000
  C   C78       1.0  0.76581  0.61402  0.31184  1.0000
  C   C79       1.0  0.75215  0.58627  0.30718  1.0000
  C   C80       1.0  0.81457  0.65037  0.32481  1.0000
  C   C81       1.0  0.88210  0.65849  0.32828  1.0000
  C   C82       1.0  0.86359  0.68503  0.33878  1.0000
  C   C83       1.0  0.87366  0.57805  0.31848  1.0000
  C   C84       1.0  0.87248  0.52438  0.26454  1.0000
  C   C85       1.0  0.87871  0.50355  0.27200  1.0000
  C   C86       1.0  0.94211  0.69264  0.26599  1.0000
  C   C87       1.0  0.96921  0.71319  0.27569  1.0000
  C   C88       1.0  0.80718  0.67092  0.32847  1.0000
  C   C89       1.0  0.78407  0.69322  0.26425  1.0000
  C   C90       1.0  0.79360  0.67492  0.25673  1.0000
  C   C91       1.0  0.72761  0.50793  0.26102  1.0000
  C   C92       1.0  0.70184  0.48499  0.26958  1.0000
  H   H41       1.0  0.69713  0.46906  0.22804  1.0000
  H   H42       1.0  0.74036  0.50789  0.21318  1.0000
  H   H43       1.0  0.80485  0.49935  0.35488  1.0000
  H   H44       1.0  0.73171  0.57470  0.29988  1.0000
  H   H45       1.0  0.75654  0.62530  0.30886  1.0000
  H   H46       1.0  0.78890  0.66318  0.20078  1.0000
  H   H47       1.0  0.77214  0.69329  0.21374  1.0000
  H   H48       1.0  0.86240  0.70220  0.34382  1.0000
  H   H49       1.0  0.93102  0.69387  0.21460  1.0000
  H   H50       1.0  0.97673  0.72882  0.23118  1.0000
  H   H51       1.0  0.88850  0.50083  0.21957  1.0000
  H   H52       1.0  0.87722  0.53531  0.20673  1.0000
  C   C93       1.0  0.44329  0.17029  0.31945  1.0000
  C   C94       1.0  0.45225  0.15168  0.31166  1.0000
  C   C95       1.0  0.48001  0.16577  0.30676  1.0000
  C   C96       1.0  0.54191  0.34797  0.26491  1.0000
  C   C97       1.0  0.56271  0.37504  0.27247  1.0000
  C   C98       1.0  0.37360  0.24926  0.26646  1.0000
  C   C99       1.0  0.35306  0.25583  0.27609  1.0000
  C   C100      1.0  0.37304  0.09075  0.26413  1.0000
  C   C101      1.0  0.39137  0.11858  0.25679  1.0000
  C   C102      1.0  0.55837  0.21959  0.26108  1.0000
  C   C103      1.0  0.58131  0.21676  0.26957  1.0000
  H   H53       1.0  0.59726  0.22800  0.22808  1.0000
  H   H54       1.0  0.55843  0.23240  0.21331  1.0000
  H   H55       1.0  0.56688  0.30535  0.35566  1.0000
  H   H56       1.0  0.49158  0.15689  0.29992  1.0000
  H   H57       1.0  0.40306  0.12566  0.20070  1.0000
  H   H58       1.0  0.37295  0.07878  0.21348  1.0000
  H   H59       1.0  0.36410  0.16010  0.34491  1.0000
  H   H60       1.0  0.37237  0.23690  0.21517  1.0000
  H   H61       1.0  0.33741  0.24767  0.23171  1.0000
  H   H62       1.0  0.56547  0.38754  0.21997  1.0000
  H   H63       1.0  0.53103  0.34178  0.20704  1.0000
  C   C104      1.0  0.77925  0.26255  0.34877  1.0000
  N   N10       1.0  0.81192  0.25390  0.32483  1.0000
  C   C105      1.0  0.82419  0.28118  0.33308  1.0000
  N   N11       1.0  0.87143  0.27093  0.32314  1.0000
  C   C106      1.0  0.89598  0.27287  0.31857  1.0000
  C   C107      1.0  0.91458  0.30044  0.31047  1.0000
  C   C108      1.0  0.90048  0.31409  0.30553  1.0000
  C   C109      1.0  0.90218  0.25170  0.32425  1.0000
  N   N12       1.0  0.85499  0.21148  0.32158  1.0000
  C   C110      1.0  0.84278  0.18418  0.32819  1.0000
  C   C111      1.0  0.88783  0.20269  0.33893  1.0000
  C   C112      1.0  0.77080  0.19263  0.31806  1.0000
  C   C113      1.0  0.76460  0.21367  0.32761  1.0000
  C   C114      1.0  0.71833  0.19387  0.26442  1.0000
  C   C115      1.0  0.69125  0.18756  0.27206  1.0000
  C   C116      1.0  0.68181  0.19560  0.34721  1.0000
  C   C117      1.0  0.81699  0.12417  0.26612  1.0000
  C   C118      1.0  0.81040  0.09706  0.27583  1.0000
  C   C119      1.0  0.93013  0.25910  0.32797  1.0000
  C   C120      1.0  0.98679  0.27620  0.33898  1.0000
  C   C121      1.0  0.97557  0.28214  0.26368  1.0000
  C   C122      1.0  0.94774  0.27265  0.25621  1.0000
  C   C123      1.0  0.85865  0.32929  0.32276  1.0000
  C   C124      1.0  0.84654  0.33857  0.26062  1.0000
  C   C125      1.0  0.84939  0.36436  0.26908  1.0000
  H   H64       1.0  0.83812  0.36905  0.22773  1.0000
  H   H65       1.0  0.83372  0.32580  0.21292  1.0000
  H   H66       1.0  0.76097  0.26141  0.35607  1.0000
  H   H67       1.0  0.82126  0.24464  0.30617  1.0000
  H   H68       1.0  0.90935  0.33453  0.29835  1.0000
  H   H69       1.0  0.93513  0.30973  0.30749  1.0000
  H   H70       1.0  0.94071  0.27728  0.20010  1.0000
  H   H71       1.0  0.98757  0.29403  0.21310  1.0000
  H   H72       1.0  0.90618  0.20388  0.34406  1.0000
  H   H73       1.0  0.82935  0.13527  0.21474  1.0000
  H   H74       1.0  0.81856  0.08955  0.23146  1.0000
  H   H75       1.0  0.67877  0.17784  0.21955  1.0000
  H   H76       1.0  0.72455  0.18921  0.20649  1.0000
  C   C126      1.0  0.21863  0.62081  0.26451  1.0000
  C   C127      1.0  0.21802  0.59603  0.26687  1.0000
  H   H77       1.0  0.22010  0.58865  0.20733  1.0000
  H   H78       1.0  0.21939  0.62892  0.20306  1.0000
  O   O1        1.0  0.21194  0.56156  0.00059  1.0000
  O   O2        1.0  0.18642  0.57442  0.04979  1.0000
  H   H79       1.0  0.17758  0.58346  0.05032  1.0000
  C   C128      1.0  0.44545  0.59768  0.26470  1.0000
  C   C129      1.0  0.47024  0.62183  0.26715  1.0000
  H   H80       1.0  0.47764  0.63131  0.20763  1.0000
  H   H81       1.0  0.43738  0.59032  0.20323  1.0000
  O   O3        1.0  0.50445  0.65014  0.00068  1.0000
  O   O4        1.0  0.49183  0.61176  0.04975  1.0000
  H   H82       1.0  0.48282  0.59388  0.05020  1.0000
  C   C130      1.0  0.46861  0.84762  0.26477  1.0000
  C   C131      1.0  0.44446  0.84825  0.26707  1.0000
  H   H83       1.0  0.43501  0.84616  0.20749  1.0000
  H   H84       1.0  0.47599  0.84684  0.20338  1.0000
  O   O5        1.0  0.41599  0.85436  0.00072  1.0000
  O   O6        1.0  0.45436  0.87989  0.04983  1.0000
  H   H85       1.0  0.47224  0.88874  0.05033  1.0000
  C   C132      1.0  0.86975  0.42323  0.26490  1.0000
  C   C133      1.0  0.87039  0.44802  0.26731  1.0000
  H   H86       1.0  0.86831  0.45542  0.20778  1.0000
  H   H87       1.0  0.86902  0.41513  0.20346  1.0000
  O   O7        1.0  0.87634  0.48231  0.00075  1.0000
  O   O8        1.0  0.90209  0.46972  0.04997  1.0000
  H   H88       1.0  0.91097  0.46072  0.05047  1.0000
  C   C134      1.0  0.64299  0.44645  0.26559  1.0000
  C   C135      1.0  0.61822  0.42228  0.26794  1.0000
  H   H89       1.0  0.61085  0.41283  0.20839  1.0000
  H   H90       1.0  0.65111  0.45383  0.20414  1.0000
  O   O9        1.0  0.58372  0.39385  0.00163  1.0000
  O   O10       1.0  0.59657  0.43222  0.05083  1.0000
  H   H91       1.0  0.60561  0.45010  0.05138  1.0000
  C   C136      1.0  0.61984  0.19643  0.26542  1.0000
  C   C137      1.0  0.64399  0.19579  0.26771  1.0000
  H   H92       1.0  0.65344  0.19787  0.20814  1.0000
  H   H93       1.0  0.61245  0.19715  0.20399  1.0000
  O   O11       1.0  0.67249  0.18994  0.00107  1.0000
  O   O12       1.0  0.63413  0.16415  0.05029  1.0000
  H   H94       1.0  0.61625  0.15526  0.05083  1.0000
  C   C138      1.0  0.05911  0.30432  0.26759  1.0000
  C   C139      1.0  0.03083  0.29042  0.26711  1.0000
  H   H95       1.0  0.02159  0.28447  0.20649  1.0000
  H   H96       1.0  0.06861  0.30920  0.20710  1.0000
  O   O13       1.0  0.07111  0.30891  0.00094  1.0000
  O   O14       1.0  0.01964  0.31145  0.04862  1.0000
  H   H97       1.0  0.03489  0.32716  0.05017  1.0000
  C   C140      1.0  0.76185  0.75455  0.26800  1.0000
  C   C141      1.0  0.77578  0.74020  0.26750  1.0000
  H   H98       1.0  0.78172  0.73689  0.20687  1.0000
  H   H99       1.0  0.75699  0.75919  0.20753  1.0000
  O   O15       1.0  0.75743  0.76212  0.00136  1.0000
  O   O16       1.0  0.75491  0.70796  0.04880  1.0000
  H   H100      1.0  0.73916  0.70741  0.05041  1.0000
  C   C142      1.0  0.31170  0.00720  0.26766  1.0000
  C   C143      1.0  0.32608  0.03548  0.26729  1.0000
  H   H101      1.0  0.32936  0.04477  0.20674  1.0000
  H   H102      1.0  0.30708  0.99774  0.20713  1.0000
  O   O17       1.0  0.30410  0.99507  0.00099  1.0000
  O   O18       1.0  0.35811  0.04652  0.04891  1.0000
  H   H103      1.0  0.35857  0.03127  0.05046  1.0000
  C   C144      1.0  0.02934  0.73967  0.26753  1.0000
  C   C145      1.0  0.05762  0.75360  0.26691  1.0000
  H   H104      1.0  0.06686  0.75952  0.20625  1.0000
  H   H105      1.0  0.01983  0.73480  0.20707  1.0000
  O   O19       1.0  0.01748  0.73538  0.00093  1.0000
  O   O20       1.0  0.06912  0.73279  0.04806  1.0000
  H   H106      1.0  0.05391  0.71705  0.04969  1.0000
  C   C146      1.0  0.32651  0.28942  0.26789  1.0000
  C   C147      1.0  0.31261  0.30380  0.26731  1.0000
  H   H107      1.0  0.30668  0.30710  0.20666  1.0000
  H   H108      1.0  0.33142  0.28481  0.20743  1.0000
  O   O21       1.0  0.33102  0.28205  0.00127  1.0000
  O   O22       1.0  0.33356  0.33608  0.04871  1.0000
  H   H109      1.0  0.34927  0.33654  0.05029  1.0000
  C   C148      1.0  0.77677  0.03692  0.26784  1.0000
  C   C149      1.0  0.76242  0.00864  0.26735  1.0000
  H   H110      1.0  0.75914  0.99940  0.20674  1.0000
  H   H111      1.0  0.78144  0.04643  0.20735  1.0000
  O   O23       1.0  0.78425  0.04892  0.00119  1.0000
  O   O24       1.0  0.73024  0.99745  0.04895  1.0000
  H   H112      1.0  0.72978  0.01270  0.05056  1.0000
  C   C150      1.0  0.30867  0.52740  0.35020  1.0000
  C   C151      1.0  0.26373  0.50114  0.33295  1.0000
  C   C152      1.0  0.31752  0.46643  0.31655  1.0000
  C   C153      1.0  0.24591  0.38566  0.32857  1.0000
  C   C154      1.0  0.20087  0.35919  0.34234  1.0000
  C   C155      1.0  0.18635  0.39344  0.32108  1.0000
  C   C156      1.0  0.19249  0.42074  0.31370  1.0000
  N   N13       1.0  0.21683  0.44346  0.32134  1.0000
  C   C157      1.0  0.18730  0.45711  0.30766  1.0000
  C   C158      1.0  0.17374  0.42937  0.30198  1.0000
  C   C159      1.0  0.23060  0.55189  0.41647  1.0000
  C   C160      1.0  0.23427  0.52938  0.41319  1.0000
  C   C161      1.0  0.15843  0.37289  0.32760  1.0000
  C   C162      1.0  0.10252  0.33200  0.34330  1.0000
  C   C163      1.0  0.11451  0.35460  0.40129  1.0000
  C   C164      1.0  0.14215  0.37370  0.39703  1.0000
  C   C165      1.0  0.27551  0.35657  0.40388  1.0000
  C   C166      1.0  0.28250  0.33624  0.40679  1.0000
  C   C167      1.0  0.37006  0.51593  0.38689  1.0000
  C   C168      1.0  0.39683  0.53758  0.38876  1.0000
  H   H113      1.0  0.40979  0.53689  0.43420  1.0000
  H   H114      1.0  0.36425  0.50088  0.43312  1.0000
  H   H115      1.0  0.32691  0.54426  0.36190  1.0000
  H   H116      1.0  0.26528  0.35852  0.45668  1.0000
  H   H117      1.0  0.27578  0.32349  0.46012  1.0000
  H   H118      1.0  0.18252  0.34217  0.35073  1.0000
  H   H119      1.0  0.17805  0.46842  0.30491  1.0000
  H   H120      1.0  0.15331  0.41773  0.29464  1.0000
  H   H121      1.0  0.15001  0.38909  0.44255  1.0000
  H   H122      1.0  0.10322  0.35758  0.44793  1.0000
  H   H123      1.0  0.24363  0.52598  0.46568  1.0000
  H   H124      1.0  0.23888  0.56448  0.46965  1.0000
  C   C169      1.0  0.53891  0.78117  0.35232  1.0000
  C   C170      1.0  0.56511  0.76246  0.33421  1.0000
  N   N14       1.0  0.58006  0.78974  0.32509  1.0000
  C   C171      1.0  0.57252  0.82972  0.32362  1.0000
  C   C172      1.0  0.59980  0.85093  0.31690  1.0000
  C   C173      1.0  0.68058  0.86011  0.32889  1.0000
  N   N15       1.0  0.66554  0.83281  0.32187  1.0000
  C   C174      1.0  0.70706  0.84155  0.34238  1.0000
  C   C175      1.0  0.67279  0.79276  0.32164  1.0000
  C   C176      1.0  0.64548  0.77159  0.31458  1.0000
  N   N16       1.0  0.62277  0.77322  0.32223  1.0000
  C   C177      1.0  0.60911  0.73004  0.30813  1.0000
  C   C178      1.0  0.63686  0.74423  0.30280  1.0000
  C   C179      1.0  0.57296  0.74241  0.32774  1.0000
  C   C180      1.0  0.55248  0.71448  0.33545  1.0000
  C   C181      1.0  0.50822  0.65962  0.34689  1.0000
  C   C182      1.0  0.51431  0.67854  0.41689  1.0000
  C   C183      1.0  0.53688  0.70469  0.41388  1.0000
  C   C184      1.0  0.69334  0.78539  0.32816  1.0000
  C   C185      1.0  0.73421  0.77035  0.34378  1.0000
  C   C186      1.0  0.71161  0.75976  0.40184  1.0000
  C   C187      1.0  0.69251  0.76830  0.39757  1.0000
  C   C188      1.0  0.70966  0.91882  0.40418  1.0000
  C   C189      1.0  0.72997  0.94614  0.40703  1.0000
  C   C190      1.0  0.73261  0.96461  0.33923  1.0000
  C   C191      1.0  0.55140  0.83647  0.32302  1.0000
  C   C192      1.0  0.55029  0.85400  0.38725  1.0000
  C   C193      1.0  0.50555  0.84431  0.33465  1.0000
  C   C194      1.0  0.52863  0.85910  0.38904  1.0000
  H   H125      1.0  0.52932  0.87281  0.43429  1.0000
  H   H126      1.0  0.56536  0.86332  0.43335  1.0000
  H   H127      1.0  0.52203  0.78256  0.36356  1.0000
  H   H128      1.0  0.59866  0.79907  0.30645  1.0000
  H   H129      1.0  0.64656  0.82331  0.30850  1.0000
  H   H130      1.0  0.70768  0.90664  0.45704  1.0000
  H   H131      1.0  0.74270  0.95218  0.46035  1.0000
  H   H132      1.0  0.72407  0.84023  0.35096  1.0000
  H   H133      1.0  0.59780  0.70950  0.30498  1.0000
  H   H134      1.0  0.64850  0.73545  0.29477  1.0000
  H   H135      1.0  0.67713  0.76079  0.44318  1.0000
  H   H136      1.0  0.70863  0.74550  0.44850  1.0000
  H   H137      1.0  0.54021  0.71743  0.46637  1.0000
  H   H138      1.0  0.50173  0.67420  0.47014  1.0000
  C   C195      1.0  0.21533  0.74871  0.31623  1.0000
  C   C196      1.0  0.29468  0.87377  0.31401  1.0000
  C   C197      1.0  0.33624  0.87896  0.30793  1.0000
  C   C198      1.0  0.32206  0.89253  0.30258  1.0000
  C   C199      1.0  0.38765  0.83560  0.41641  1.0000
  C   C200      1.0  0.36148  0.83196  0.41315  1.0000
  C   C201      1.0  0.30642  0.95168  0.40138  1.0000
  C   C202      1.0  0.29784  0.92403  0.39713  1.0000
  C   C203      1.0  0.14746  0.79077  0.40331  1.0000
  C   C204      1.0  0.12014  0.78375  0.40626  1.0000
  C   C205      1.0  0.21230  0.69618  0.38681  1.0000
  C   C206      1.0  0.20720  0.66942  0.38877  1.0000
  H   H139      1.0  0.19350  0.65643  0.43410  1.0000
  H   H140      1.0  0.20303  0.70198  0.43302  1.0000
  H   H141      1.0  0.28375  0.73932  0.36179  1.0000
  H   H142      1.0  0.15964  0.80102  0.45606  1.0000
  H   H143      1.0  0.11410  0.79049  0.45952  1.0000
  H   H144      1.0  0.22597  0.88370  0.34924  1.0000
  H   H145      1.0  0.35679  0.88820  0.30495  1.0000
  H   H146      1.0  0.33085  0.91295  0.29474  1.0000
  H   H147      1.0  0.30534  0.91615  0.44266  1.0000
  H   H148      1.0  0.32065  0.96293  0.44811  1.0000
  H   H149      1.0  0.34869  0.82256  0.46556  1.0000
  H   H150      1.0  0.39195  0.82735  0.46970  1.0000
  C   C207      1.0  0.77975  0.51665  0.35099  1.0000
  C   C208      1.0  0.80370  0.51649  0.34765  1.0000
  C   C209      1.0  0.82469  0.54291  0.33356  1.0000
  N   N17       1.0  0.81234  0.55784  0.32461  1.0000
  C   C210      1.0  0.76483  0.55035  0.32402  1.0000
  C   C211      1.0  0.77090  0.57763  0.31771  1.0000
  C   C212      1.0  0.84252  0.65843  0.32890  1.0000
  N   N18       1.0  0.85479  0.64340  0.32177  1.0000
  C   C213      1.0  0.88758  0.68493  0.34188  1.0000
  C   C214      1.0  0.90209  0.65063  0.32153  1.0000
  C   C215      1.0  0.89596  0.62333  0.31450  1.0000
  N   N19       1.0  0.87161  0.60061  0.32206  1.0000
  C   C216      1.0  0.90115  0.58696  0.30877  1.0000
  C   C217      1.0  0.91471  0.61470  0.30305  1.0000
  C   C218      1.0  0.85261  0.55080  0.32774  1.0000
  C   C219      1.0  0.86006  0.53032  0.33555  1.0000
  C   C220      1.0  0.87059  0.48602  0.34701  1.0000
  C   C221      1.0  0.85773  0.49210  0.41696  1.0000
  C   C222      1.0  0.85411  0.51465  0.41384  1.0000
  C   C223      1.0  0.93000  0.67119  0.32800  1.0000
  C   C224      1.0  0.98592  0.71208  0.34349  1.0000
  C   C225      1.0  0.97390  0.68952  0.40170  1.0000
  C   C226      1.0  0.94626  0.67042  0.39755  1.0000
  C   C227      1.0  0.81294  0.68755  0.40431  1.0000
  C   C228      1.0  0.80594  0.70787  0.40710  1.0000
  C   C229      1.0  0.79005  0.71044  0.33939  1.0000
  C   C230      1.0  0.73695  0.52924  0.32356  1.0000
  C   C231      1.0  0.71835  0.52811  0.38806  1.0000
  C   C232      1.0  0.68325  0.48341  0.33534  1.0000
  C   C233      1.0  0.69159  0.50646  0.38996  1.0000
  H   H151      1.0  0.67860  0.50715  0.43531  1.0000
  H   H152      1.0  0.72415  0.54315  0.43432  1.0000
  H   H153      1.0  0.76150  0.49978  0.36252  1.0000
  H   H154      1.0  0.82167  0.57658  0.30781  1.0000
  H   H155      1.0  0.84530  0.62438  0.30897  1.0000
  H   H156      1.0  0.82319  0.68564  0.45709  1.0000
  H   H157      1.0  0.81265  0.72065  0.46033  1.0000
  H   H158      1.0  0.90591  0.70195  0.35030  1.0000
  H   H159      1.0  0.91040  0.57564  0.30607  1.0000
  H   H160      1.0  0.93515  0.62633  0.29566  1.0000
  H   H161      1.0  0.93838  0.65507  0.44321  1.0000
  H   H162      1.0  0.98517  0.68656  0.44840  1.0000
  H   H163      1.0  0.84470  0.51801  0.46627  1.0000
  H   H164      1.0  0.84945  0.47951  0.47018  1.0000
  C   C234      1.0  0.54960  0.26296  0.35138  1.0000
  C   C235      1.0  0.54975  0.28707  0.34827  1.0000
  C   C236      1.0  0.52334  0.28165  0.33406  1.0000
  N   N20       1.0  0.50842  0.25437  0.32485  1.0000
  C   C237      1.0  0.52343  0.24210  0.33313  1.0000
  C   C238      1.0  0.51592  0.21436  0.32411  1.0000
  C   C239      1.0  0.48864  0.19314  0.31767  1.0000
  N   N21       1.0  0.46590  0.19484  0.32393  1.0000
  C   C240      1.0  0.41591  0.16409  0.32496  1.0000
  C   C241      1.0  0.40786  0.18399  0.32944  1.0000
  N   N22       1.0  0.42290  0.21129  0.32243  1.0000
  C   C242      1.0  0.40780  0.22350  0.32896  1.0000
  C   C243      1.0  0.38139  0.20256  0.34316  1.0000
  C   C244      1.0  0.38127  0.17846  0.33990  1.0000
  C   C245      1.0  0.41564  0.25132  0.32189  1.0000
  C   C246      1.0  0.44295  0.27249  0.31457  1.0000
  N   N23       1.0  0.46566  0.27087  0.32230  1.0000
  C   C247      1.0  0.48822  0.29547  0.31843  1.0000
  C   C248      1.0  0.47931  0.31405  0.30859  1.0000
  C   C249      1.0  0.45157  0.29986  0.30284  1.0000
  C   C250      1.0  0.51546  0.30168  0.32809  1.0000
  C   C251      1.0  0.53593  0.32960  0.33592  1.0000
  C   C252      1.0  0.58019  0.38445  0.34753  1.0000
  C   C253      1.0  0.57407  0.36551  0.41751  1.0000
  C   C254      1.0  0.55156  0.33933  0.41424  1.0000
  C   C255      1.0  0.39509  0.25869  0.32829  1.0000
  C   C256      1.0  0.35418  0.27370  0.34376  1.0000
  C   C257      1.0  0.37676  0.28431  0.40181  1.0000
  C   C258      1.0  0.39587  0.27577  0.39767  1.0000
  C   C259      1.0  0.39536  0.13615  0.32857  1.0000
  C   C260      1.0  0.37873  0.12523  0.40447  1.0000
  C   C261      1.0  0.35841  0.09791  0.40719  1.0000
  C   C262      1.0  0.35582  0.07948  0.33934  1.0000
  C   C263      1.0  0.53703  0.20759  0.32357  1.0000
  C   C264      1.0  0.53814  0.19010  0.38798  1.0000
  C   C265      1.0  0.58286  0.19973  0.33524  1.0000
  C   C266      1.0  0.55978  0.18497  0.38977  1.0000
  H   H165      1.0  0.55909  0.17131  0.43518  1.0000
  H   H166      1.0  0.52308  0.18084  0.43423  1.0000
  H   H167      1.0  0.56645  0.26158  0.36308  1.0000
  H   H168      1.0  0.48970  0.24497  0.30787  1.0000
  H   H169      1.0  0.44185  0.22077  0.30837  1.0000
  H   H170      1.0  0.44098  0.13113  0.30885  1.0000
  H   H171      1.0  0.38066  0.13738  0.45734  1.0000
  H   H172      1.0  0.34564  0.09184  0.46047  1.0000
  H   H173      1.0  0.36437  0.20388  0.35152  1.0000
  H   H174      1.0  0.49062  0.33461  0.30584  1.0000
  H   H175      1.0  0.43994  0.30867  0.29543  1.0000
  H   H176      1.0  0.41124  0.28331  0.44323  1.0000
  H   H177      1.0  0.37972  0.29857  0.44840  1.0000
  H   H178      1.0  0.54816  0.32657  0.46675  1.0000
  H   H179      1.0  0.58664  0.36982  0.47072  1.0000
  C   C267      1.0  0.80336  0.28648  0.35210  1.0000
  C   C268      1.0  0.78464  0.24156  0.33402  1.0000
  C   C269      1.0  0.85190  0.30141  0.32331  1.0000
  C   C270      1.0  0.87311  0.29535  0.31656  1.0000
  C   C271      1.0  0.88229  0.22375  0.32861  1.0000
  C   C272      1.0  0.86373  0.17871  0.34214  1.0000
  C   C273      1.0  0.81495  0.16419  0.32138  1.0000
  C   C274      1.0  0.79378  0.17033  0.31434  1.0000
  N   N24       1.0  0.79541  0.19467  0.32201  1.0000
  C   C275      1.0  0.75223  0.16515  0.30795  1.0000
  C   C276      1.0  0.76641  0.15159  0.30256  1.0000
  C   C277      1.0  0.73667  0.20621  0.33546  1.0000
  C   C278      1.0  0.70075  0.20843  0.41712  1.0000
  C   C279      1.0  0.72691  0.21202  0.41395  1.0000
  C   C280      1.0  0.80757  0.13627  0.32791  1.0000
  C   C281      1.0  0.79253  0.08035  0.34357  1.0000
  C   C282      1.0  0.78193  0.09235  0.40160  1.0000
  C   C283      1.0  0.79047  0.11999  0.39733  1.0000
  C   C284      1.0  0.94099  0.25337  0.40391  1.0000
  C   C285      1.0  0.96830  0.26037  0.40679  1.0000
  C   C286      1.0  0.87619  0.34791  0.38700  1.0000
  C   C287      1.0  0.86647  0.38296  0.33457  1.0000
  C   C288      1.0  0.88128  0.37467  0.38889  1.0000
  H   H180      1.0  0.89497  0.38766  0.43415  1.0000
  H   H181      1.0  0.88550  0.34214  0.43308  1.0000
  H   H182      1.0  0.80474  0.30474  0.36335  1.0000
  H   H183      1.0  0.84549  0.22097  0.30817  1.0000
  H   H184      1.0  0.92880  0.24317  0.45677  1.0000
  H   H185      1.0  0.97434  0.25366  0.46012  1.0000
  H   H186      1.0  0.86241  0.16038  0.35075  1.0000
  H   H187      1.0  0.73168  0.15591  0.30483  1.0000
  H   H188      1.0  0.75764  0.13118  0.29454  1.0000
  H   H189      1.0  0.78295  0.12785  0.44291  1.0000
  H   H190      1.0  0.76766  0.08107  0.44826  1.0000
  H   H191      1.0  0.73966  0.22141  0.46638  1.0000
  H   H192      1.0  0.69643  0.21666  0.47041  1.0000
  C   C289      1.0  0.21567  0.58225  0.34768  1.0000
  C   C290      1.0  0.21397  0.59509  0.42687  1.0000
  C   C291      1.0  0.21789  0.62184  0.42638  1.0000
  C   C292      1.0  0.21958  0.63487  0.34325  1.0000
  N   N25       1.0  0.22088  0.63395  0.50794  1.0000
  C   C293      1.0  0.21670  0.62083  0.58707  1.0000
  C   C294      1.0  0.20943  0.59340  0.58699  1.0000
  N   N26       1.0  0.20917  0.58237  0.50689  1.0000
  O   O25       1.0  0.21999  0.63442  0.66433  1.0000
  H   H193      1.0  0.22712  0.65311  0.51163  1.0000
  C   C295      1.0  0.20485  0.57850  0.66456  1.0000
  C   C296      1.0  0.48397  0.63325  0.34800  1.0000
  C   C297      1.0  0.47107  0.61870  0.42715  1.0000
  C   C298      1.0  0.44433  0.59587  0.42657  1.0000
  C   C299      1.0  0.43135  0.58454  0.34340  1.0000
  N   N27       1.0  0.43217  0.58672  0.50808  1.0000
  C   C300      1.0  0.44524  0.59565  0.58726  1.0000
  C   C301      1.0  0.47266  0.61584  0.58729  1.0000
  N   N28       1.0  0.48375  0.62661  0.50722  1.0000
  O   O26       1.0  0.43162  0.58532  0.66447  1.0000
  H   H194      1.0  0.41301  0.57379  0.51170  1.0000
  C   C302      1.0  0.48749  0.62607  0.66502  1.0000
  C   C303      1.0  0.43301  0.85062  0.34782  1.0000
  C   C304      1.0  0.44750  0.85227  0.42706  1.0000
  C   C305      1.0  0.47032  0.84834  0.42665  1.0000
  C   C306      1.0  0.48169  0.84666  0.34357  1.0000
  N   N29       1.0  0.47941  0.84536  0.50825  1.0000
  C   C307      1.0  0.47044  0.84952  0.58734  1.0000
  C   C308      1.0  0.45025  0.85675  0.58718  1.0000
  N   N30       1.0  0.43952  0.85705  0.50705  1.0000
  O   O27       1.0  0.48072  0.84625  0.66463  1.0000
  H   H195      1.0  0.49237  0.83916  0.51199  1.0000
  C   C309      1.0  0.43992  0.86136  0.66469  1.0000
  C   C310      1.0  0.87271  0.46177  0.34815  1.0000
  C   C311      1.0  0.87438  0.44891  0.42731  1.0000
  C   C312      1.0  0.87048  0.42217  0.42677  1.0000
  C   C313      1.0  0.86881  0.40917  0.34362  1.0000
  N   N31       1.0  0.86750  0.41004  0.50831  1.0000
  C   C314      1.0  0.87164  0.42314  0.58746  1.0000
  C   C315      1.0  0.87886  0.45055  0.58744  1.0000
  N   N32       1.0  0.87914  0.46161  0.50736  1.0000
  O   O28       1.0  0.86837  0.40954  0.66469  1.0000
  H   H196      1.0  0.86130  0.39089  0.51196  1.0000
  C   C316      1.0  0.88342  0.46540  0.66515  1.0000
  C   C317      1.0  0.60443  0.41083  0.34874  1.0000
  C   C318      1.0  0.61726  0.42535  0.42794  1.0000
  C   C319      1.0  0.64400  0.44818  0.42747  1.0000
  C   C320      1.0  0.65704  0.45954  0.34434  1.0000
  N   N33       1.0  0.65610  0.45727  0.50904  1.0000
  C   C321      1.0  0.64297  0.44831  0.58816  1.0000
  C   C322      1.0  0.61554  0.42815  0.58806  1.0000
  N   N34       1.0  0.60452  0.41740  0.50795  1.0000
  O   O29       1.0  0.65654  0.45858  0.66542  1.0000
  H   H197      1.0  0.67526  0.47019  0.51273  1.0000
  C   C323      1.0  0.60063  0.41781  0.66562  1.0000
  C   C324      1.0  0.65544  0.19348  0.34849  1.0000
  C   C325      1.0  0.64092  0.19182  0.42773  1.0000
  C   C326      1.0  0.61809  0.19573  0.42729  1.0000
  C   C327      1.0  0.60673  0.19739  0.34420  1.0000
  N   N35       1.0  0.60896  0.19872  0.50887  1.0000
  C   C328      1.0  0.61792  0.19458  0.58799  1.0000
  C   C329      1.0  0.63811  0.18735  0.58788  1.0000
  N   N36       1.0  0.64886  0.18704  0.50774  1.0000
  O   O30       1.0  0.60761  0.19786  0.66526  1.0000
  H   H198      1.0  0.59603  0.20495  0.51259  1.0000
  C   C330      1.0  0.64838  0.18275  0.66554  1.0000
  C   C331      1.0  0.01559  0.28653  0.34573  1.0000
  C   C332      1.0  0.03038  0.29405  0.42725  1.0000
  C   C333      1.0  0.05901  0.30541  0.42930  1.0000
  C   C334      1.0  0.07396  0.31302  0.34790  1.0000
  N   N37       1.0  0.07100  0.30885  0.51120  1.0000
  C   C335      1.0  0.05760  0.30481  0.58964  1.0000
  C   C336      1.0  0.02991  0.29650  0.58793  1.0000
  N   N38       1.0  0.01791  0.29123  0.50688  1.0000
  H   H199      1.0  0.08994  0.31392  0.51505  1.0000
  C   C337      1.0  0.01481  0.29248  0.66461  1.0000
  O   O31       1.0  0.99140  0.27400  0.66576  1.0000
  C   C338      1.0  0.77968  0.72889  0.34613  1.0000
  C   C339      1.0  0.77218  0.73619  0.42766  1.0000
  C   C340      1.0  0.76081  0.75345  0.42972  1.0000
  C   C341      1.0  0.75319  0.76076  0.34833  1.0000
  N   N39       1.0  0.75737  0.76203  0.51162  1.0000
  C   C342      1.0  0.76145  0.75271  0.59006  1.0000
  C   C343      1.0  0.76978  0.73335  0.58837  1.0000
  N   N40       1.0  0.77503  0.72659  0.50730  1.0000
  H   H200      1.0  0.75230  0.77590  0.51546  1.0000
  C   C344      1.0  0.77379  0.72231  0.66518  1.0000
  O   O32       1.0  0.79243  0.71762  0.66577  1.0000
  C   C345      1.0  0.33737  0.05067  0.34597  1.0000
  C   C346      1.0  0.33005  0.03583  0.42743  1.0000
  C   C347      1.0  0.31278  0.00719  0.42938  1.0000
  C   C348      1.0  0.30552  0.99230  0.34791  1.0000
  N   N41       1.0  0.30416  0.99516  0.51124  1.0000
  C   C349      1.0  0.31347  0.00852  0.58972  1.0000
  C   C350      1.0  0.33286  0.03620  0.58812  1.0000
  N   N42       1.0  0.33964  0.04825  0.50711  1.0000
  H   H201      1.0  0.29027  0.97623  0.51502  1.0000
  C   C351      1.0  0.34389  0.05127  0.66487  1.0000
  O   O33       1.0  0.34880  0.07467  0.66604  1.0000
  C   C352      1.0  0.07285  0.75752  0.34548  1.0000
  C   C353      1.0  0.05806  0.75005  0.42707  1.0000
  C   C354      1.0  0.02943  0.73870  0.42924  1.0000
  C   C355      1.0  0.01448  0.73105  0.34791  1.0000
  N   N43       1.0  0.01745  0.73532  0.51118  1.0000
  C   C356      1.0  0.03086  0.73941  0.58957  1.0000
  C   C357      1.0  0.05854  0.74771  0.58778  1.0000
  N   N44       1.0  0.07054  0.75292  0.50666  1.0000
  H   H202      1.0  0.99851  0.73026  0.51509  1.0000
  C   C358      1.0  0.07360  0.75172  0.66453  1.0000
  O   O34       1.0  0.09695  0.77035  0.66506  1.0000
  C   C359      1.0  0.30869  0.31514  0.34587  1.0000
  C   C360      1.0  0.31619  0.30787  0.42744  1.0000
  C   C361      1.0  0.32755  0.29059  0.42959  1.0000
  C   C362      1.0  0.33519  0.28326  0.34824  1.0000
  N   N45       1.0  0.33096  0.28203  0.51153  1.0000
  C   C363      1.0  0.32690  0.29139  0.58992  1.0000
  C   C364      1.0  0.31859  0.31076  0.58812  1.0000
  N   N46       1.0  0.31334  0.31750  0.50703  1.0000
  H   H203      1.0  0.33603  0.26817  0.51544  1.0000
  C   C365      1.0  0.31455  0.32185  0.66476  1.0000
  O   O35       1.0  0.29606  0.32676  0.66585  1.0000
  C   C366      1.0  0.75106  0.99341  0.34597  1.0000
  C   C367      1.0  0.75833  0.00821  0.42749  1.0000
  C   C368      1.0  0.77560  0.03684  0.42954  1.0000
  C   C369      1.0  0.78294  0.05179  0.34815  1.0000
  N   N47       1.0  0.78416  0.04884  0.51145  1.0000
  C   C370      1.0  0.77480  0.03544  0.58988  1.0000
  C   C371      1.0  0.75541  0.00776  0.58818  1.0000
  N   N48       1.0  0.74868  0.99575  0.50713  1.0000
  H   H204      1.0  0.79804  0.06778  0.51529  1.0000
  C   C372      1.0  0.74434  0.99266  0.66487  1.0000
  O   O36       1.0  0.73942  0.96925  0.66597  1.0000
