data_image0
_chemical_formula_structural       C4NC4NH4N2C4NC4NH4N2C4NC4NH4N2C3H2CHC3H2CHC3H2CHC3H2CHC3H2CHC3H2CHC2HC2H3N2C2HC2H3N2C2HC2H3N2C3HOHCHC3HOHCHC3HOHCHC3HOHCHC3HOHCHC3HOHCH
_chemical_formula_sum              "C84 N18 H60 O6"
_cell_length_a       31.6491
_cell_length_b       31.649
_cell_length_c       15.0365
_cell_angle_alpha    90
_cell_angle_beta     90
_cell_angle_gamma    120

_space_group_name_H-M_alt    "P 1"
_space_group_IT_number       1

loop_
  _space_group_symop_operation_xyz
  'x, y, z'

loop_
  _atom_site_type_symbol
  _atom_site_label
  _atom_site_symmetry_multiplicity
  _atom_site_fract_x
  _atom_site_fract_y
  _atom_site_fract_z
  _atom_site_occupancy
  C   C1        1.0  0.97210  0.48500  0.32527  1.0000
  C   C2        1.0  0.86706  0.42966  0.32719  1.0000
  C   C3        1.0  0.89508  0.40625  0.33941  1.0000
  C   C4        1.0  0.94627  0.43432  0.34478  1.0000
  N   N1        1.0  0.81730  0.40350  0.32737  1.0000
  C   C5        1.0  0.02420  0.51257  0.32520  1.0000
  C   C6        1.0  0.05003  0.56326  0.34471  1.0000
  C   C7        1.0  0.10122  0.59133  0.33925  1.0000
  C   C8        1.0  0.12924  0.56792  0.32696  1.0000
  N   N2        1.0  0.17900  0.59408  0.32713  1.0000
  H   H1        1.0  0.19701  0.62830  0.34317  1.0000
  H   H2        1.0  0.79929  0.36928  0.34342  1.0000
  H   H3        1.0  0.96473  0.41644  0.36009  1.0000
  H   H4        1.0  0.03158  0.58112  0.36012  1.0000
  N   N3        1.0  0.12108  0.64039  0.34547  1.0000
  N   N4        1.0  0.87522  0.35718  0.34556  1.0000
  C   C9        1.0  0.51194  0.48652  0.32527  1.0000
  C   C10       1.0  0.56727  0.43681  0.32702  1.0000
  C   C11       1.0  0.59069  0.48825  0.33922  1.0000
  C   C12       1.0  0.56262  0.51136  0.34479  1.0000
  N   N5        1.0  0.59343  0.41321  0.32715  1.0000
  C   C13       1.0  0.48437  0.51104  0.32530  1.0000
  C   C14       1.0  0.43369  0.48619  0.34487  1.0000
  C   C15       1.0  0.40562  0.50931  0.33935  1.0000
  C   C16       1.0  0.42904  0.56075  0.32714  1.0000
  N   N6        1.0  0.40288  0.58435  0.32730  1.0000
  H   H5        1.0  0.36865  0.56813  0.34330  1.0000
  H   H6        1.0  0.62767  0.42943  0.34312  1.0000
  H   H7        1.0  0.58051  0.54770  0.36004  1.0000
  H   H8        1.0  0.41581  0.44985  0.36012  1.0000
  N   N7        1.0  0.35655  0.48011  0.34548  1.0000
  N   N8        1.0  0.63976  0.51747  0.34530  1.0000
  C   C17       1.0  0.51047  0.02483  0.32517  1.0000
  C   C18       1.0  0.56022  0.12987  0.32690  1.0000
  C   C19       1.0  0.50878  0.10187  0.33919  1.0000
  C   C20       1.0  0.48564  0.05068  0.34466  1.0000
  N   N9        1.0  0.58384  0.17963  0.32711  1.0000
  C   C21       1.0  0.48594  0.97274  0.32527  1.0000
  C   C22       1.0  0.51079  0.94691  0.34483  1.0000
  C   C23       1.0  0.48768  0.89572  0.33931  1.0000
  C   C24       1.0  0.43624  0.86769  0.32706  1.0000
  N   N10       1.0  0.41266  0.81793  0.32716  1.0000
  H   H9        1.0  0.42887  0.79993  0.34328  1.0000
  H   H10       1.0  0.56768  0.19765  0.34341  1.0000
  H   H11       1.0  0.44932  0.03224  0.36010  1.0000
  H   H12       1.0  0.54713  0.96537  0.36004  1.0000
  N   N11       1.0  0.51690  0.87588  0.34538  1.0000
  N   N12       1.0  0.47959  0.12176  0.34536  1.0000
  C   C25       1.0  0.27585  0.46706  0.31070  1.0000
  C   C26       1.0  0.24277  0.46359  0.24404  1.0000
  C   C27       1.0  0.20053  0.46542  0.26584  1.0000
  H   H13       1.0  0.17997  0.46699  0.21477  1.0000
  H   H14       1.0  0.25083  0.46314  0.17818  1.0000
  C   C28       1.0  0.32332  0.47827  0.28660  1.0000
  H   H15       1.0  0.33525  0.49157  0.22381  1.0000
  C   C29       1.0  0.52995  0.80825  0.31072  1.0000
  C   C30       1.0  0.53331  0.77854  0.24409  1.0000
  C   C31       1.0  0.53163  0.73453  0.26594  1.0000
  H   H16       1.0  0.52977  0.71234  0.21477  1.0000
  H   H17       1.0  0.53369  0.78700  0.17823  1.0000
  C   C32       1.0  0.51876  0.84450  0.28649  1.0000
  H   H18       1.0  0.50537  0.84306  0.22375  1.0000
  C   C33       1.0  0.18871  0.72110  0.31084  1.0000
  C   C34       1.0  0.21839  0.75420  0.24421  1.0000
  C   C35       1.0  0.26244  0.79648  0.26605  1.0000
  H   H19       1.0  0.28463  0.81681  0.21487  1.0000
  H   H20       1.0  0.20998  0.74610  0.17834  1.0000
  C   C36       1.0  0.15246  0.67366  0.28663  1.0000
  H   H21       1.0  0.15383  0.66176  0.22379  1.0000
  C   C37       1.0  0.72046  0.53053  0.31067  1.0000
  C   C38       1.0  0.75353  0.53393  0.24404  1.0000
  C   C39       1.0  0.79586  0.53226  0.26589  1.0000
  H   H22       1.0  0.81619  0.53030  0.21482  1.0000
  H   H23       1.0  0.74539  0.53415  0.17816  1.0000
  C   C40       1.0  0.67300  0.51931  0.28644  1.0000
  H   H24       1.0  0.66106  0.50591  0.22370  1.0000
  C   C41       1.0  0.46647  0.18939  0.31078  1.0000
  C   C42       1.0  0.46301  0.21902  0.24412  1.0000
  C   C43       1.0  0.46463  0.26299  0.26595  1.0000
  H   H25       1.0  0.46656  0.28527  0.21486  1.0000
  H   H26       1.0  0.46282  0.21066  0.17825  1.0000
  C   C44       1.0  0.47784  0.15326  0.28665  1.0000
  H   H27       1.0  0.49111  0.15460  0.22383  1.0000
  C   C45       1.0  0.80761  0.27645  0.31079  1.0000
  C   C46       1.0  0.77804  0.24338  0.24404  1.0000
  C   C47       1.0  0.73395  0.20115  0.26581  1.0000
  H   H28       1.0  0.71181  0.18063  0.21471  1.0000
  H   H29       1.0  0.78647  0.25153  0.17820  1.0000
  C   C48       1.0  0.84381  0.32394  0.28673  1.0000
  H   H30       1.0  0.84249  0.33587  0.22389  1.0000
  C   C49       1.0  0.94341  0.50696  0.30694  1.0000
  C   C50       1.0  0.89221  0.48114  0.31460  1.0000
  H   H31       1.0  0.95983  0.54331  0.29213  1.0000
  C   C51       1.0  0.10409  0.51644  0.31433  1.0000
  C   C52       1.0  0.05289  0.49062  0.30669  1.0000
  H   H32       1.0  0.03645  0.45426  0.29205  1.0000
  H   H33       1.0  0.19859  0.57986  0.30907  1.0000
  H   H34       1.0  0.79770  0.41771  0.30935  1.0000
  N   N13       1.0  0.12564  0.48860  0.31493  1.0000
  N   N14       1.0  0.87065  0.50898  0.31513  1.0000
  C   C53       1.0  0.48998  0.43587  0.30682  1.0000
  C   C54       1.0  0.51579  0.41048  0.31450  1.0000
  H   H35       1.0  0.45361  0.41594  0.29219  1.0000
  C   C55       1.0  0.48052  0.58708  0.31460  1.0000
  C   C56       1.0  0.50632  0.56168  0.30684  1.0000
  H   H36       1.0  0.54268  0.58162  0.29216  1.0000
  H   H37       1.0  0.41710  0.61817  0.30929  1.0000
  H   H38       1.0  0.57920  0.37939  0.30915  1.0000
  N   N15       1.0  0.50836  0.63647  0.31513  1.0000
  N   N16       1.0  0.48794  0.36109  0.31512  1.0000
  C   C57       1.0  0.56110  0.05349  0.30660  1.0000
  C   C58       1.0  0.58651  0.10470  0.31417  1.0000
  H   H39       1.0  0.58102  0.03704  0.29193  1.0000
  C   C59       1.0  0.40990  0.89284  0.31450  1.0000
  C   C60       1.0  0.43528  0.94404  0.30693  1.0000
  H   H40       1.0  0.41536  0.96048  0.29218  1.0000
  H   H41       1.0  0.37883  0.79833  0.30925  1.0000
  H   H42       1.0  0.61768  0.19922  0.30919  1.0000
  N   N17       1.0  0.36052  0.87129  0.31512  1.0000
  N   N18       1.0  0.63590  0.12621  0.31480  1.0000
  C   C61       1.0  0.19241  0.47463  0.35445  1.0000
  C   C62       1.0  0.22317  0.47380  0.42236  1.0000
  C   C63       1.0  0.26343  0.46824  0.40065  1.0000
  H   H43       1.0  0.28731  0.47238  0.45036  1.0000
  O   O1        1.0  0.21804  0.48282  0.50913  1.0000
  H   H44       1.0  0.19104  0.45227  0.53292  1.0000
  C   C64       1.0  0.16000  0.49186  0.37255  1.0000
  H   H45       1.0  0.16390  0.51003  0.43112  1.0000
  C   C65       1.0  0.52237  0.71723  0.35456  1.0000
  C   C66       1.0  0.52327  0.74886  0.42245  1.0000
  C   C67       1.0  0.52875  0.79463  0.40066  1.0000
  H   H46       1.0  0.52482  0.81451  0.45037  1.0000
  O   O2        1.0  0.51433  0.73477  0.50925  1.0000
  H   H47       1.0  0.54486  0.73824  0.53292  1.0000
  C   C68       1.0  0.50510  0.66759  0.37270  1.0000
  H   H48       1.0  0.48693  0.65335  0.43128  1.0000
  C   C69       1.0  0.27976  0.80454  0.35466  1.0000
  C   C70       1.0  0.24814  0.77381  0.42256  1.0000
  C   C71       1.0  0.20240  0.73347  0.40075  1.0000
  H   H49       1.0  0.18250  0.70973  0.45051  1.0000
  O   O3        1.0  0.26224  0.77896  0.50935  1.0000
  H   H50       1.0  0.25881  0.80606  0.53301  1.0000
  C   C72       1.0  0.32941  0.83690  0.37272  1.0000
  H   H51       1.0  0.34368  0.83298  0.43126  1.0000
  C   C73       1.0  0.80391  0.52302  0.35454  1.0000
  C   C74       1.0  0.77316  0.52392  0.42242  1.0000
  C   C75       1.0  0.73288  0.52941  0.40062  1.0000
  H   H52       1.0  0.70908  0.52549  0.45033  1.0000
  O   O4        1.0  0.77838  0.51507  0.50924  1.0000
  H   H53       1.0  0.80543  0.54564  0.53282  1.0000
  C   C76       1.0  0.83625  0.50572  0.37267  1.0000
  H   H54       1.0  0.83232  0.48754  0.43125  1.0000
  C   C77       1.0  0.47391  0.28033  0.35457  1.0000
  C   C78       1.0  0.47306  0.24871  0.42247  1.0000
  C   C79       1.0  0.46755  0.20292  0.40072  1.0000
  H   H55       1.0  0.47163  0.18319  0.45052  1.0000
  O   O5        1.0  0.48197  0.26282  0.50927  1.0000
  H   H56       1.0  0.45139  0.25927  0.53291  1.0000
  C   C80       1.0  0.49122  0.32998  0.37269  1.0000
  H   H57       1.0  0.50945  0.34424  0.43121  1.0000
  C   C81       1.0  0.71663  0.19295  0.35443  1.0000
  C   C82       1.0  0.74821  0.22368  0.42238  1.0000
  C   C83       1.0  0.79401  0.26399  0.40070  1.0000
  H   H58       1.0  0.81373  0.28777  0.45054  1.0000
  O   O6        1.0  0.73410  0.21839  0.50919  1.0000
  H   H59       1.0  0.73773  0.19140  0.53277  1.0000
  C   C84       1.0  0.66700  0.16050  0.37253  1.0000
  H   H60       1.0  0.65272  0.16437  0.43111  1.0000
