data_image0
_chemical_formula_structural       C2NHC2HC2NHC2H3CNCHCHC2HNC2NCHCHC2HNCHCHN2C3H2CHN2C3HC3NH3C6N2H3C6N2H4CNHCNHCNHCNHC3H2C3H2C3H2C3H2C3H2C2NCHC2NCHC2NCHC2NCHC3NH3C6N2H3C6N2H4CNHCNHCNHCNHC3H2C3H2C3H2C3H2C3H2C2NCHC2NCHC2NCHC2NCHC6N2H3C6N2H4C6N2H4CNHCNHCNHCNHCNHCNHC3H2C3H2C3H2C3H2C3H2C3H2C2NCHC2NCHC2NCHC2NCHC2NCHC2NCHC6N2H3C6N2H4C6N2H4CNHCNHCNHCNHCNHCNHC3H2C3H2C3H2C3H2C3H2C3H2C2NCHC2NCHC2NCHC2NCHC2NCHC2NCH
_chemical_formula_sum              "C240 N72 H144"
_cell_length_a       45.8984
_cell_length_b       45.8984
_cell_length_c       14.8859
_cell_angle_alpha    90
_cell_angle_beta     90
_cell_angle_gamma    120

_space_group_name_H-M_alt    "P 1"
_space_group_IT_number       1

loop_
  _space_group_symop_operation_xyz
  'x, y, z'

loop_
  _atom_site_type_symbol
  _atom_site_label
  _atom_site_symmetry_multiplicity
  _atom_site_fract_x
  _atom_site_fract_y
  _atom_site_fract_z
  _atom_site_occupancy
  C   C1        1.0  0.02408  0.26310  0.29867  1.0000
  C   C2        1.0  0.04455  0.29940  0.29337  1.0000
  N   N1        1.0  0.03381  0.31713  0.24357  1.0000
  H   H1        1.0  0.04510  0.34146  0.24376  1.0000
  C   C3        1.0  0.07505  0.26254  0.35484  1.0000
  C   C4        1.0  0.04206  0.24604  0.32078  1.0000
  H   H2        1.0  0.03020  0.22055  0.32591  1.0000
  C   C5        1.0  0.02407  0.76310  0.29867  1.0000
  C   C6        1.0  0.04455  0.79940  0.29337  1.0000
  N   N2        1.0  0.03381  0.81713  0.24357  1.0000
  H   H3        1.0  0.04510  0.84146  0.24376  1.0000
  C   C7        1.0  0.07505  0.76254  0.35484  1.0000
  C   C8        1.0  0.04206  0.74604  0.32078  1.0000
  H   H4        1.0  0.03020  0.72055  0.32591  1.0000
  H   H5        1.0  0.01551  0.30582  0.20069  1.0000
  H   H6        1.0  0.01551  0.80582  0.20069  1.0000
  C   C9        1.0  0.07628  0.31690  0.33947  1.0000
  N   N3        1.0  0.10537  0.23942  0.28486  1.0000
  C   C10       1.0  0.11123  0.37550  0.27548  1.0000
  H   H7        1.0  0.10216  0.36842  0.21183  1.0000
  C   C11       1.0  0.08989  0.29718  0.37193  1.0000
  H   H8        1.0  0.11422  0.30913  0.39504  1.0000
  C   C12       1.0  0.09505  0.24709  0.36286  1.0000
  C   C13       1.0  0.11637  0.25387  0.43773  1.0000
  H   H9        1.0  0.11236  0.26285  0.49651  1.0000
  N   N4        1.0  0.11670  0.36330  0.42553  1.0000
  C   C14       1.0  0.09862  0.35234  0.34778  1.0000
  C   C15       1.0  0.07628  0.81690  0.33947  1.0000
  N   N5        1.0  0.10536  0.73942  0.28486  1.0000
  C   C16       1.0  0.11123  0.87550  0.27548  1.0000
  H   H10       1.0  0.10216  0.86842  0.21183  1.0000
  C   C17       1.0  0.08989  0.79718  0.37193  1.0000
  H   H11       1.0  0.11422  0.80914  0.39504  1.0000
  C   C18       1.0  0.09505  0.74709  0.36286  1.0000
  C   C19       1.0  0.11637  0.75387  0.43773  1.0000
  H   H12       1.0  0.11236  0.76285  0.49651  1.0000
  N   N6        1.0  0.11670  0.86330  0.42553  1.0000
  C   C20       1.0  0.09862  0.85234  0.34778  1.0000
  H   H13       1.0  0.16815  0.20565  0.24390  1.0000
  C   C21       1.0  0.13410  0.23773  0.27558  1.0000
  H   H14       1.0  0.14115  0.23564  0.21196  1.0000
  N   N7        1.0  0.14166  0.40423  0.28488  1.0000
  N   N8        1.0  0.14637  0.25557  0.42549  1.0000
  C   C22       1.0  0.15731  0.24836  0.34782  1.0000
  C   C23       1.0  0.15962  0.41465  0.36294  1.0000
  C   C24       1.0  0.14499  0.39330  0.43773  1.0000
  H   H15       1.0  0.15795  0.39732  0.49657  1.0000
  H   H16       1.0  0.16815  0.70565  0.24390  1.0000
  C   C25       1.0  0.13410  0.73773  0.27558  1.0000
  H   H17       1.0  0.14115  0.73564  0.21196  1.0000
  N   N9        1.0  0.14166  0.90422  0.28488  1.0000
  N   N10       1.0  0.14637  0.75557  0.42549  1.0000
  C   C26       1.0  0.15731  0.74836  0.34782  1.0000
  C   C27       1.0  0.15963  0.91465  0.36294  1.0000
  C   C28       1.0  0.14499  0.89330  0.43773  1.0000
  H   H18       1.0  0.15795  0.89732  0.49657  1.0000
  C   C29       1.0  0.48744  0.24453  0.29883  1.0000
  C   C30       1.0  0.43514  0.19076  0.33939  1.0000
  C   C31       1.0  0.46692  0.20822  0.29351  1.0000
  N   N11       1.0  0.47768  0.19047  0.24386  1.0000
  H   H19       1.0  0.99593  0.20178  0.20082  1.0000
  H   H20       1.0  0.46628  0.16615  0.24376  1.0000
  H   H21       1.0  0.51551  0.30582  0.20069  1.0000
  C   C32       1.0  0.26504  0.24481  0.29910  1.0000
  C   C33       1.0  0.31881  0.24620  0.33887  1.0000
  C   C34       1.0  0.30133  0.26057  0.29336  1.0000
  C   C35       1.0  0.24650  0.26291  0.29908  1.0000
  C   C36       1.0  0.21021  0.24714  0.29354  1.0000
  C   C37       1.0  0.19273  0.26143  0.33944  1.0000
  N   N12       1.0  0.31905  0.28909  0.24372  1.0000
  N   N13       1.0  0.19247  0.21865  0.24379  1.0000
  H   H22       1.0  0.30771  0.29604  0.20086  1.0000
  H   H23       1.0  0.34338  0.30192  0.24321  1.0000
  H   H24       1.0  0.20378  0.21163  0.20103  1.0000
  C   C38       1.0  0.26483  0.02217  0.29878  1.0000
  C   C39       1.0  0.26341  0.07450  0.33894  1.0000
  C   C40       1.0  0.24906  0.04269  0.29325  1.0000
  C   C41       1.0  0.24672  0.48553  0.29904  1.0000
  C   C42       1.0  0.26247  0.46499  0.29347  1.0000
  C   C43       1.0  0.24807  0.43315  0.33905  1.0000
  N   N14       1.0  0.22056  0.03192  0.24356  1.0000
  N   N15       1.0  0.29100  0.47576  0.24392  1.0000
  H   H25       1.0  0.21359  0.51362  0.20069  1.0000
  H   H26       1.0  0.20764  0.04333  0.24329  1.0000
  H   H27       1.0  0.30387  0.46430  0.24362  1.0000
  H   H28       1.0  0.29795  0.99402  0.20092  1.0000
  C   C44       1.0  0.27183  0.39829  0.27541  1.0000
  N   N16       1.0  0.27019  0.36790  0.28491  1.0000
  H   H29       1.0  0.27379  0.40733  0.21173  1.0000
  C   C45       1.0  0.37747  0.26993  0.27528  1.0000
  N   N17       1.0  0.40618  0.26821  0.28486  1.0000
  H   H30       1.0  0.37044  0.27194  0.21158  1.0000
  C   C46       1.0  0.23970  0.10939  0.27524  1.0000
  N   N18       1.0  0.24136  0.13980  0.28469  1.0000
  H   H31       1.0  0.23775  0.10036  0.21155  1.0000
  C   C47       1.0  0.40018  0.13217  0.27538  1.0000
  N   N19       1.0  0.36976  0.10342  0.28467  1.0000
  H   H32       1.0  0.40926  0.13927  0.21173  1.0000
  C   C48       1.0  0.46948  0.26159  0.32106  1.0000
  C   C49       1.0  0.43648  0.24513  0.35497  1.0000
  C   C50       1.0  0.42160  0.21050  0.37225  1.0000
  H   H33       1.0  0.48132  0.28709  0.32579  1.0000
  H   H34       1.0  0.39724  0.19852  0.39509  1.0000
  C   C51       1.0  0.24792  0.20979  0.32145  1.0000
  C   C52       1.0  0.26440  0.19316  0.35461  1.0000
  C   C53       1.0  0.29908  0.21282  0.37106  1.0000
  H   H35       1.0  0.22242  0.19622  0.32648  1.0000
  H   H36       1.0  0.31106  0.20042  0.39378  1.0000
  C   C54       1.0  0.21247  0.29481  0.37166  1.0000
  C   C55       1.0  0.24714  0.31452  0.35483  1.0000
  C   C56       1.0  0.26361  0.29793  0.32148  1.0000
  H   H37       1.0  0.20054  0.30724  0.39452  1.0000
  H   H38       1.0  0.28911  0.31152  0.32636  1.0000
  C   C57       1.0  0.29988  0.04011  0.32089  1.0000
  C   C58       1.0  0.31644  0.07315  0.35468  1.0000
  C   C59       1.0  0.29669  0.08805  0.37176  1.0000
  H   H39       1.0  0.31346  0.02821  0.32624  1.0000
  H   H40       1.0  0.30911  0.11241  0.39464  1.0000
  C   C60       1.0  0.21476  0.41959  0.37170  1.0000
  C   C61       1.0  0.19507  0.43455  0.35474  1.0000
  C   C62       1.0  0.21169  0.46762  0.32133  1.0000
  H   H41       1.0  0.20236  0.39522  0.39454  1.0000
  H   H42       1.0  0.19810  0.47953  0.32612  1.0000
  C   C63       1.0  0.26267  0.34996  0.36301  1.0000
  C   C64       1.0  0.25594  0.36459  0.43779  1.0000
  N   N20       1.0  0.25412  0.39282  0.42552  1.0000
  C   C65       1.0  0.26115  0.41080  0.34767  1.0000
  H   H43       1.0  0.24704  0.35164  0.49666  1.0000
  C   C66       1.0  0.41651  0.26060  0.36298  1.0000
  C   C67       1.0  0.39510  0.25387  0.43766  1.0000
  N   N21       1.0  0.36512  0.25218  0.42526  1.0000
  C   C68       1.0  0.35425  0.25936  0.34745  1.0000
  H   H44       1.0  0.39907  0.24491  0.49653  1.0000
  C   C69       1.0  0.24885  0.15773  0.36279  1.0000
  C   C70       1.0  0.25559  0.14310  0.43755  1.0000
  N   N22       1.0  0.25735  0.11484  0.42526  1.0000
  C   C71       1.0  0.25023  0.09675  0.34753  1.0000
  H   H45       1.0  0.26454  0.15606  0.49638  1.0000
  C   C72       1.0  0.35189  0.09309  0.36284  1.0000
  C   C73       1.0  0.36645  0.11435  0.43779  1.0000
  N   N23       1.0  0.39474  0.14435  0.42552  1.0000
  C   C74       1.0  0.41281  0.15531  0.34775  1.0000
  H   H46       1.0  0.35348  0.11031  0.49661  1.0000
  C   C75       1.0  0.48744  0.74453  0.29883  1.0000
  C   C76       1.0  0.43514  0.69076  0.33939  1.0000
  C   C77       1.0  0.46692  0.70822  0.29351  1.0000
  N   N24       1.0  0.47768  0.69047  0.24386  1.0000
  H   H47       1.0  0.99592  0.70177  0.20082  1.0000
  H   H48       1.0  0.46628  0.66615  0.24376  1.0000
  H   H49       1.0  0.51551  0.80582  0.20069  1.0000
  C   C78       1.0  0.26504  0.74481  0.29910  1.0000
  C   C79       1.0  0.31882  0.74620  0.33887  1.0000
  C   C80       1.0  0.30133  0.76057  0.29336  1.0000
  C   C81       1.0  0.24650  0.76291  0.29908  1.0000
  C   C82       1.0  0.21021  0.74714  0.29354  1.0000
  C   C83       1.0  0.19273  0.76143  0.33944  1.0000
  N   N25       1.0  0.31905  0.78909  0.24372  1.0000
  N   N26       1.0  0.19247  0.71865  0.24379  1.0000
  H   H50       1.0  0.30771  0.79604  0.20086  1.0000
  H   H51       1.0  0.34338  0.80192  0.24321  1.0000
  H   H52       1.0  0.20378  0.71163  0.20103  1.0000
  C   C84       1.0  0.26483  0.52217  0.29878  1.0000
  C   C85       1.0  0.26341  0.57450  0.33894  1.0000
  C   C86       1.0  0.24906  0.54269  0.29325  1.0000
  C   C87       1.0  0.24672  0.98553  0.29904  1.0000
  C   C88       1.0  0.26247  0.96499  0.29347  1.0000
  C   C89       1.0  0.24807  0.93315  0.33905  1.0000
  N   N27       1.0  0.22056  0.53192  0.24356  1.0000
  N   N28       1.0  0.29100  0.97576  0.24392  1.0000
  H   H53       1.0  0.21359  0.01362  0.20069  1.0000
  H   H54       1.0  0.20764  0.54333  0.24329  1.0000
  H   H55       1.0  0.30387  0.96430  0.24362  1.0000
  H   H56       1.0  0.29795  0.49402  0.20092  1.0000
  C   C90       1.0  0.27183  0.89829  0.27541  1.0000
  N   N29       1.0  0.27019  0.86790  0.28491  1.0000
  H   H57       1.0  0.27379  0.90733  0.21173  1.0000
  C   C91       1.0  0.37747  0.76993  0.27528  1.0000
  N   N30       1.0  0.40618  0.76821  0.28486  1.0000
  H   H58       1.0  0.37044  0.77194  0.21158  1.0000
  C   C92       1.0  0.23970  0.60939  0.27524  1.0000
  N   N31       1.0  0.24136  0.63980  0.28469  1.0000
  H   H59       1.0  0.23775  0.60036  0.21155  1.0000
  C   C93       1.0  0.40018  0.63217  0.27538  1.0000
  N   N32       1.0  0.36976  0.60342  0.28467  1.0000
  H   H60       1.0  0.40926  0.63927  0.21173  1.0000
  C   C94       1.0  0.46948  0.76159  0.32106  1.0000
  C   C95       1.0  0.43648  0.74513  0.35497  1.0000
  C   C96       1.0  0.42159  0.71050  0.37225  1.0000
  H   H61       1.0  0.48132  0.78709  0.32579  1.0000
  H   H62       1.0  0.39724  0.69852  0.39509  1.0000
  C   C97       1.0  0.24792  0.70979  0.32145  1.0000
  C   C98       1.0  0.26440  0.69316  0.35461  1.0000
  C   C99       1.0  0.29908  0.71282  0.37106  1.0000
  H   H63       1.0  0.22242  0.69622  0.32648  1.0000
  H   H64       1.0  0.31106  0.70042  0.39378  1.0000
  C   C100      1.0  0.21247  0.79481  0.37166  1.0000
  C   C101      1.0  0.24714  0.81453  0.35483  1.0000
  C   C102      1.0  0.26361  0.79793  0.32148  1.0000
  H   H65       1.0  0.20054  0.80724  0.39452  1.0000
  H   H66       1.0  0.28911  0.81152  0.32636  1.0000
  C   C103      1.0  0.29988  0.54011  0.32089  1.0000
  C   C104      1.0  0.31643  0.57315  0.35468  1.0000
  C   C105      1.0  0.29669  0.58805  0.37176  1.0000
  H   H67       1.0  0.31346  0.52821  0.32624  1.0000
  H   H68       1.0  0.30911  0.61241  0.39464  1.0000
  C   C106      1.0  0.21476  0.91959  0.37170  1.0000
  C   C107      1.0  0.19507  0.93455  0.35474  1.0000
  C   C108      1.0  0.21169  0.96762  0.32133  1.0000
  H   H69       1.0  0.20236  0.89522  0.39454  1.0000
  H   H70       1.0  0.19809  0.97953  0.32612  1.0000
  C   C109      1.0  0.26267  0.84996  0.36301  1.0000
  C   C110      1.0  0.25594  0.86459  0.43779  1.0000
  N   N33       1.0  0.25412  0.89282  0.42552  1.0000
  C   C111      1.0  0.26115  0.91080  0.34767  1.0000
  H   H71       1.0  0.24704  0.85164  0.49666  1.0000
  C   C112      1.0  0.41650  0.76060  0.36298  1.0000
  C   C113      1.0  0.39510  0.75387  0.43766  1.0000
  N   N34       1.0  0.36512  0.75218  0.42526  1.0000
  C   C114      1.0  0.35425  0.75936  0.34745  1.0000
  H   H72       1.0  0.39907  0.74491  0.49653  1.0000
  C   C115      1.0  0.24885  0.65773  0.36279  1.0000
  C   C116      1.0  0.25559  0.64310  0.43755  1.0000
  N   N35       1.0  0.25735  0.61484  0.42526  1.0000
  C   C117      1.0  0.25023  0.59675  0.34753  1.0000
  H   H73       1.0  0.26454  0.65606  0.49638  1.0000
  C   C118      1.0  0.35189  0.59309  0.36284  1.0000
  C   C119      1.0  0.36645  0.61434  0.43779  1.0000
  N   N36       1.0  0.39474  0.64435  0.42552  1.0000
  C   C120      1.0  0.41282  0.65531  0.34775  1.0000
  H   H74       1.0  0.35348  0.61031  0.49661  1.0000
  C   C121      1.0  0.98744  0.24453  0.29883  1.0000
  C   C122      1.0  0.93514  0.19076  0.33939  1.0000
  C   C123      1.0  0.96692  0.20822  0.29351  1.0000
  C   C124      1.0  0.52407  0.26310  0.29867  1.0000
  C   C125      1.0  0.54455  0.29940  0.29337  1.0000
  C   C126      1.0  0.57628  0.31690  0.33947  1.0000
  N   N37       1.0  0.97768  0.19047  0.24386  1.0000
  N   N38       1.0  0.53381  0.31713  0.24357  1.0000
  H   H75       1.0  0.49592  0.20178  0.20082  1.0000
  H   H76       1.0  0.96628  0.16615  0.24376  1.0000
  H   H77       1.0  0.54510  0.34146  0.24376  1.0000
  C   C127      1.0  0.76504  0.24481  0.29910  1.0000
  C   C128      1.0  0.81882  0.24620  0.33887  1.0000
  C   C129      1.0  0.80133  0.26057  0.29336  1.0000
  C   C130      1.0  0.74650  0.26291  0.29908  1.0000
  C   C131      1.0  0.71021  0.24714  0.29354  1.0000
  C   C132      1.0  0.69273  0.26143  0.33944  1.0000
  N   N39       1.0  0.81905  0.28909  0.24372  1.0000
  N   N40       1.0  0.69247  0.21865  0.24379  1.0000
  H   H78       1.0  0.80771  0.29604  0.20086  1.0000
  H   H79       1.0  0.84338  0.30192  0.24321  1.0000
  H   H80       1.0  0.66815  0.20565  0.24390  1.0000
  H   H81       1.0  0.70378  0.21163  0.20103  1.0000
  C   C133      1.0  0.76483  0.02217  0.29878  1.0000
  C   C134      1.0  0.76341  0.07450  0.33894  1.0000
  C   C135      1.0  0.74906  0.04269  0.29325  1.0000
  C   C136      1.0  0.74672  0.48553  0.29904  1.0000
  C   C137      1.0  0.76247  0.46499  0.29347  1.0000
  C   C138      1.0  0.74807  0.43315  0.33905  1.0000
  N   N41       1.0  0.72056  0.03192  0.24356  1.0000
  N   N42       1.0  0.79100  0.47576  0.24392  1.0000
  H   H82       1.0  0.71359  0.51362  0.20069  1.0000
  H   H83       1.0  0.70764  0.04333  0.24329  1.0000
  H   H84       1.0  0.80387  0.46430  0.24362  1.0000
  H   H85       1.0  0.79795  0.99402  0.20092  1.0000
  C   C139      1.0  0.63410  0.23773  0.27558  1.0000
  N   N43       1.0  0.60537  0.23942  0.28486  1.0000
  H   H86       1.0  0.64115  0.23564  0.21196  1.0000
  C   C140      1.0  0.77183  0.39829  0.27541  1.0000
  N   N44       1.0  0.77019  0.36790  0.28491  1.0000
  H   H87       1.0  0.77379  0.40733  0.21173  1.0000
  C   C141      1.0  0.61123  0.37550  0.27548  1.0000
  N   N45       1.0  0.64166  0.40423  0.28488  1.0000
  H   H88       1.0  0.60216  0.36842  0.21183  1.0000
  C   C142      1.0  0.87747  0.26993  0.27528  1.0000
  N   N46       1.0  0.90618  0.26821  0.28486  1.0000
  H   H89       1.0  0.87044  0.27194  0.21158  1.0000
  C   C143      1.0  0.73970  0.10939  0.27524  1.0000
  N   N47       1.0  0.74137  0.13980  0.28469  1.0000
  H   H90       1.0  0.73775  0.10036  0.21155  1.0000
  C   C144      1.0  0.90018  0.13217  0.27538  1.0000
  N   N48       1.0  0.86976  0.10342  0.28467  1.0000
  H   H91       1.0  0.90926  0.13927  0.21173  1.0000
  C   C145      1.0  0.96948  0.26159  0.32106  1.0000
  C   C146      1.0  0.93648  0.24513  0.35497  1.0000
  C   C147      1.0  0.92160  0.21050  0.37225  1.0000
  H   H92       1.0  0.98132  0.28709  0.32579  1.0000
  H   H93       1.0  0.89724  0.19852  0.39509  1.0000
  C   C148      1.0  0.58989  0.29718  0.37193  1.0000
  C   C149      1.0  0.57505  0.26254  0.35484  1.0000
  C   C150      1.0  0.54206  0.24604  0.32078  1.0000
  H   H94       1.0  0.61422  0.30913  0.39504  1.0000
  H   H95       1.0  0.53020  0.22055  0.32591  1.0000
  C   C151      1.0  0.74792  0.20979  0.32145  1.0000
  C   C152      1.0  0.76440  0.19316  0.35461  1.0000
  C   C153      1.0  0.79908  0.21282  0.37106  1.0000
  H   H96       1.0  0.72242  0.19622  0.32648  1.0000
  H   H97       1.0  0.81106  0.20042  0.39378  1.0000
  C   C154      1.0  0.71247  0.29481  0.37166  1.0000
  C   C155      1.0  0.74714  0.31452  0.35483  1.0000
  C   C156      1.0  0.76362  0.29793  0.32148  1.0000
  H   H98       1.0  0.70054  0.30724  0.39452  1.0000
  H   H99       1.0  0.78912  0.31152  0.32636  1.0000
  C   C157      1.0  0.79988  0.04011  0.32089  1.0000
  C   C158      1.0  0.81644  0.07315  0.35468  1.0000
  C   C159      1.0  0.79669  0.08805  0.37176  1.0000
  H   H100      1.0  0.81346  0.02821  0.32624  1.0000
  H   H101      1.0  0.80911  0.11241  0.39464  1.0000
  C   C160      1.0  0.71476  0.41959  0.37170  1.0000
  C   C161      1.0  0.69507  0.43455  0.35474  1.0000
  C   C162      1.0  0.71169  0.46762  0.32133  1.0000
  H   H102      1.0  0.70237  0.39522  0.39454  1.0000
  H   H103      1.0  0.69810  0.47953  0.32612  1.0000
  C   C163      1.0  0.59505  0.24709  0.36286  1.0000
  C   C164      1.0  0.61637  0.25387  0.43773  1.0000
  N   N49       1.0  0.64637  0.25557  0.42549  1.0000
  C   C165      1.0  0.65731  0.24836  0.34782  1.0000
  H   H104      1.0  0.61237  0.26285  0.49651  1.0000
  C   C166      1.0  0.76267  0.34996  0.36301  1.0000
  C   C167      1.0  0.75594  0.36459  0.43779  1.0000
  N   N50       1.0  0.75412  0.39282  0.42552  1.0000
  C   C168      1.0  0.76116  0.41080  0.34767  1.0000
  H   H105      1.0  0.74704  0.35164  0.49666  1.0000
  C   C169      1.0  0.65963  0.41465  0.36294  1.0000
  C   C170      1.0  0.64499  0.39330  0.43773  1.0000
  N   N51       1.0  0.61670  0.36330  0.42553  1.0000
  C   C171      1.0  0.59862  0.35234  0.34778  1.0000
  H   H106      1.0  0.65795  0.39732  0.49657  1.0000
  C   C172      1.0  0.91651  0.26060  0.36298  1.0000
  C   C173      1.0  0.89510  0.25387  0.43766  1.0000
  N   N52       1.0  0.86512  0.25218  0.42526  1.0000
  C   C174      1.0  0.85425  0.25936  0.34745  1.0000
  H   H107      1.0  0.89907  0.24491  0.49653  1.0000
  C   C175      1.0  0.74885  0.15773  0.36279  1.0000
  C   C176      1.0  0.75559  0.14310  0.43755  1.0000
  N   N53       1.0  0.75736  0.11484  0.42526  1.0000
  C   C177      1.0  0.75023  0.09675  0.34753  1.0000
  H   H108      1.0  0.76455  0.15606  0.49638  1.0000
  C   C178      1.0  0.85189  0.09309  0.36284  1.0000
  C   C179      1.0  0.86645  0.11435  0.43779  1.0000
  N   N54       1.0  0.89474  0.14435  0.42552  1.0000
  C   C180      1.0  0.91282  0.15531  0.34775  1.0000
  H   H109      1.0  0.85348  0.11031  0.49661  1.0000
  C   C181      1.0  0.98744  0.74453  0.29883  1.0000
  C   C182      1.0  0.93514  0.69076  0.33939  1.0000
  C   C183      1.0  0.96692  0.70822  0.29351  1.0000
  C   C184      1.0  0.52407  0.76310  0.29867  1.0000
  C   C185      1.0  0.54455  0.79940  0.29337  1.0000
  C   C186      1.0  0.57628  0.81690  0.33947  1.0000
  N   N55       1.0  0.97769  0.69047  0.24386  1.0000
  N   N56       1.0  0.53381  0.81713  0.24357  1.0000
  H   H110      1.0  0.49592  0.70177  0.20082  1.0000
  H   H111      1.0  0.96628  0.66615  0.24376  1.0000
  H   H112      1.0  0.54510  0.84146  0.24376  1.0000
  C   C187      1.0  0.76504  0.74481  0.29910  1.0000
  C   C188      1.0  0.81882  0.74620  0.33887  1.0000
  C   C189      1.0  0.80133  0.76057  0.29336  1.0000
  C   C190      1.0  0.74650  0.76291  0.29908  1.0000
  C   C191      1.0  0.71021  0.74714  0.29354  1.0000
  C   C192      1.0  0.69273  0.76143  0.33944  1.0000
  N   N57       1.0  0.81905  0.78909  0.24372  1.0000
  N   N58       1.0  0.69247  0.71865  0.24379  1.0000
  H   H113      1.0  0.80771  0.79604  0.20086  1.0000
  H   H114      1.0  0.84338  0.80192  0.24321  1.0000
  H   H115      1.0  0.66815  0.70565  0.24390  1.0000
  H   H116      1.0  0.70378  0.71163  0.20103  1.0000
  C   C193      1.0  0.76483  0.52217  0.29878  1.0000
  C   C194      1.0  0.76341  0.57450  0.33894  1.0000
  C   C195      1.0  0.74906  0.54269  0.29325  1.0000
  C   C196      1.0  0.74672  0.98553  0.29904  1.0000
  C   C197      1.0  0.76247  0.96499  0.29347  1.0000
  C   C198      1.0  0.74807  0.93315  0.33905  1.0000
  N   N59       1.0  0.72055  0.53192  0.24356  1.0000
  N   N60       1.0  0.79100  0.97576  0.24392  1.0000
  H   H117      1.0  0.71359  0.01362  0.20069  1.0000
  H   H118      1.0  0.70764  0.54333  0.24329  1.0000
  H   H119      1.0  0.80387  0.96430  0.24362  1.0000
  H   H120      1.0  0.79795  0.49402  0.20092  1.0000
  C   C199      1.0  0.63410  0.73773  0.27558  1.0000
  N   N61       1.0  0.60537  0.73942  0.28486  1.0000
  H   H121      1.0  0.64115  0.73564  0.21196  1.0000
  C   C200      1.0  0.77183  0.89829  0.27541  1.0000
  N   N62       1.0  0.77019  0.86790  0.28491  1.0000
  H   H122      1.0  0.77379  0.90733  0.21173  1.0000
  C   C201      1.0  0.61123  0.87550  0.27548  1.0000
  N   N63       1.0  0.64166  0.90422  0.28488  1.0000
  H   H123      1.0  0.60216  0.86842  0.21183  1.0000
  C   C202      1.0  0.87747  0.76993  0.27528  1.0000
  N   N64       1.0  0.90618  0.76821  0.28486  1.0000
  H   H124      1.0  0.87044  0.77194  0.21158  1.0000
  C   C203      1.0  0.73970  0.60939  0.27524  1.0000
  N   N65       1.0  0.74137  0.63980  0.28469  1.0000
  H   H125      1.0  0.73775  0.60036  0.21155  1.0000
  C   C204      1.0  0.90018  0.63217  0.27538  1.0000
  N   N66       1.0  0.86976  0.60342  0.28467  1.0000
  H   H126      1.0  0.90926  0.63927  0.21173  1.0000
  C   C205      1.0  0.96948  0.76159  0.32106  1.0000
  C   C206      1.0  0.93648  0.74513  0.35497  1.0000
  C   C207      1.0  0.92160  0.71050  0.37225  1.0000
  H   H127      1.0  0.98132  0.78709  0.32579  1.0000
  H   H128      1.0  0.89724  0.69852  0.39509  1.0000
  C   C208      1.0  0.58989  0.79718  0.37193  1.0000
  C   C209      1.0  0.57505  0.76254  0.35484  1.0000
  C   C210      1.0  0.54206  0.74604  0.32078  1.0000
  H   H129      1.0  0.61422  0.80914  0.39504  1.0000
  H   H130      1.0  0.53020  0.72055  0.32591  1.0000
  C   C211      1.0  0.74792  0.70979  0.32145  1.0000
  C   C212      1.0  0.76440  0.69316  0.35461  1.0000
  C   C213      1.0  0.79908  0.71282  0.37106  1.0000
  H   H131      1.0  0.72242  0.69622  0.32648  1.0000
  H   H132      1.0  0.81106  0.70042  0.39378  1.0000
  C   C214      1.0  0.71247  0.79481  0.37166  1.0000
  C   C215      1.0  0.74713  0.81453  0.35483  1.0000
  C   C216      1.0  0.76362  0.79793  0.32148  1.0000
  H   H133      1.0  0.70054  0.80724  0.39452  1.0000
  H   H134      1.0  0.78911  0.81152  0.32636  1.0000
  C   C217      1.0  0.79988  0.54011  0.32089  1.0000
  C   C218      1.0  0.81644  0.57315  0.35468  1.0000
  C   C219      1.0  0.79669  0.58805  0.37176  1.0000
  H   H135      1.0  0.81346  0.52821  0.32624  1.0000
  H   H136      1.0  0.80911  0.61241  0.39464  1.0000
  C   C220      1.0  0.71476  0.91959  0.37170  1.0000
  C   C221      1.0  0.69507  0.93455  0.35474  1.0000
  C   C222      1.0  0.71169  0.96762  0.32133  1.0000
  H   H137      1.0  0.70237  0.89522  0.39454  1.0000
  H   H138      1.0  0.69810  0.97953  0.32612  1.0000
  C   C223      1.0  0.59505  0.74709  0.36286  1.0000
  C   C224      1.0  0.61637  0.75387  0.43773  1.0000
  N   N67       1.0  0.64637  0.75557  0.42549  1.0000
  C   C225      1.0  0.65731  0.74836  0.34782  1.0000
  H   H139      1.0  0.61236  0.76285  0.49651  1.0000
  C   C226      1.0  0.76267  0.84996  0.36301  1.0000
  C   C227      1.0  0.75594  0.86459  0.43779  1.0000
  N   N68       1.0  0.75412  0.89282  0.42552  1.0000
  C   C228      1.0  0.76116  0.91080  0.34767  1.0000
  H   H140      1.0  0.74704  0.85164  0.49666  1.0000
  C   C229      1.0  0.65963  0.91465  0.36294  1.0000
  C   C230      1.0  0.64499  0.89330  0.43773  1.0000
  N   N69       1.0  0.61670  0.86330  0.42553  1.0000
  C   C231      1.0  0.59862  0.85234  0.34778  1.0000
  H   H141      1.0  0.65795  0.89732  0.49657  1.0000
  C   C232      1.0  0.91651  0.76060  0.36298  1.0000
  C   C233      1.0  0.89510  0.75387  0.43766  1.0000
  N   N70       1.0  0.86512  0.75218  0.42526  1.0000
  C   C234      1.0  0.85425  0.75936  0.34745  1.0000
  H   H142      1.0  0.89907  0.74491  0.49653  1.0000
  C   C235      1.0  0.74885  0.65773  0.36279  1.0000
  C   C236      1.0  0.75559  0.64310  0.43755  1.0000
  N   N71       1.0  0.75735  0.61484  0.42526  1.0000
  C   C237      1.0  0.75023  0.59675  0.34753  1.0000
  H   H143      1.0  0.76454  0.65606  0.49638  1.0000
  C   C238      1.0  0.85189  0.59309  0.36284  1.0000
  C   C239      1.0  0.86645  0.61434  0.43779  1.0000
  N   N72       1.0  0.89474  0.64435  0.42552  1.0000
  C   C240      1.0  0.91282  0.65531  0.34775  1.0000
  H   H144      1.0  0.85348  0.61031  0.49661  1.0000
