data_image0
_chemical_formula_structural       CNCNCNCNCHC2HCHC2HC4NC2HNCHC2NC2HNCHC2NCHCN2CNCNCNCNC2HC3N2HC2HC3N2HC2HNC2NC2HNCHC2NC2HNCHC2NCHCN2CNCNCNCNC2HC3N2HC2HC3N2HC2HNC2NC2HNCHC2NC2HNCHC2NC2HNCHCNCNCNCNCNCNC2HC3N2HC2HC3N2HC2HC3N2HC2NC2HNCHC2NC2HNCHC2NC2HNCHCNCNCNCNCNCNC2HC3N2HC2HC3N2HC2HC3N2H
_chemical_formula_sum              "C144 N72 H48"
_cell_length_a       43.5696
_cell_length_b       43.5697
_cell_length_c       14.8993
_cell_angle_alpha    90
_cell_angle_beta     90
_cell_angle_gamma    120

_space_group_name_H-M_alt    "P 1"
_space_group_IT_number       1

loop_
  _space_group_symop_operation_xyz
  'x, y, z'

loop_
  _atom_site_type_symbol
  _atom_site_label
  _atom_site_symmetry_multiplicity
  _atom_site_fract_x
  _atom_site_fract_y
  _atom_site_fract_z
  _atom_site_occupancy
  C   C1        1.0  0.02378  0.26273  0.33697  1.0000
  N   N1        1.0  0.04318  0.27244  0.26002  1.0000
  C   C2        1.0  0.04176  0.27173  0.42061  1.0000
  N   N2        1.0  0.02236  0.26202  0.49741  1.0000
  C   C3        1.0  0.02378  0.76273  0.33697  1.0000
  N   N3        1.0  0.04318  0.77244  0.26002  1.0000
  C   C4        1.0  0.04176  0.77173  0.42061  1.0000
  N   N4        1.0  0.02236  0.76202  0.49741  1.0000
  C   C5        1.0  0.07921  0.29045  0.25928  1.0000
  H   H1        1.0  0.09207  0.29688  0.19888  1.0000
  C   C6        1.0  0.09834  0.30002  0.34077  1.0000
  C   C7        1.0  0.07909  0.29039  0.42205  1.0000
  H   H2        1.0  0.09212  0.29691  0.48234  1.0000
  C   C8        1.0  0.07921  0.79045  0.25928  1.0000
  H   H3        1.0  0.09207  0.79688  0.19888  1.0000
  C   C9        1.0  0.09834  0.80001  0.34077  1.0000
  C   C10       1.0  0.07909  0.79039  0.42205  1.0000
  H   H4        1.0  0.09212  0.79691  0.48234  1.0000
  C   C11       1.0  0.13561  0.31865  0.34096  1.0000
  C   C12       1.0  0.13561  0.81865  0.34096  1.0000
  C   C13       1.0  0.30171  0.20674  0.34030  1.0000
  C   C14       1.0  0.29211  0.21634  0.25890  1.0000
  N   N5        1.0  0.27409  0.23435  0.25983  1.0000
  C   C15       1.0  0.26442  0.24402  0.33687  1.0000
  C   C16       1.0  0.24571  0.26273  0.33697  1.0000
  H   H5        1.0  0.29852  0.20993  0.19844  1.0000
  N   N6        1.0  0.23601  0.27243  0.26002  1.0000
  C   C17       1.0  0.21799  0.29045  0.25928  1.0000
  H   H6        1.0  0.21156  0.29688  0.19887  1.0000
  C   C18       1.0  0.30170  0.09665  0.34030  1.0000
  C   C19       1.0  0.29211  0.07746  0.25890  1.0000
  N   N7        1.0  0.27409  0.04143  0.25983  1.0000
  C   C20       1.0  0.26442  0.02209  0.33687  1.0000
  C   C21       1.0  0.24571  0.48467  0.33697  1.0000
  H   H7        1.0  0.29851  0.09027  0.19844  1.0000
  N   N8        1.0  0.23601  0.46526  0.26002  1.0000
  C   C22       1.0  0.21800  0.42924  0.25928  1.0000
  H   H8        1.0  0.21156  0.41637  0.19888  1.0000
  C   C23       1.0  0.41180  0.20674  0.34030  1.0000
  C   C24       1.0  0.43099  0.21634  0.25890  1.0000
  N   N9        1.0  0.46702  0.23435  0.25983  1.0000
  C   C25       1.0  0.48636  0.24402  0.33687  1.0000
  H   H9        1.0  0.41817  0.20993  0.19844  1.0000
  C   C26       1.0  0.18980  0.37284  0.34096  1.0000
  N   N10       1.0  0.15378  0.35467  0.34095  1.0000
  N   N11       1.0  0.15378  0.30080  0.34095  1.0000
  C   C27       1.0  0.18980  0.31865  0.34096  1.0000
  N   N12       1.0  0.20764  0.35467  0.34095  1.0000
  C   C28       1.0  0.32034  0.13392  0.34032  1.0000
  N   N13       1.0  0.35636  0.15209  0.34034  1.0000
  C   C29       1.0  0.37453  0.18811  0.34032  1.0000
  N   N14       1.0  0.35636  0.20596  0.34034  1.0000
  C   C30       1.0  0.32034  0.18811  0.34032  1.0000
  N   N15       1.0  0.30249  0.15209  0.34034  1.0000
  C   C31       1.0  0.27345  0.23500  0.42042  1.0000
  C   C32       1.0  0.29211  0.21634  0.42168  1.0000
  H   H10       1.0  0.29865  0.20980  0.48191  1.0000
  C   C33       1.0  0.20843  0.30001  0.34077  1.0000
  C   C34       1.0  0.21805  0.29039  0.42205  1.0000
  C   C35       1.0  0.23672  0.27172  0.42061  1.0000
  N   N16       1.0  0.24642  0.26202  0.49741  1.0000
  N   N17       1.0  0.26377  0.24467  0.49732  1.0000
  H   H11       1.0  0.21154  0.29690  0.48234  1.0000
  C   C36       1.0  0.27344  0.04013  0.42042  1.0000
  C   C37       1.0  0.29211  0.07746  0.42168  1.0000
  H   H12       1.0  0.29865  0.09054  0.48191  1.0000
  C   C38       1.0  0.20843  0.41011  0.34077  1.0000
  C   C39       1.0  0.21806  0.42936  0.42205  1.0000
  C   C40       1.0  0.23672  0.46668  0.42061  1.0000
  N   N18       1.0  0.24642  0.48609  0.49741  1.0000
  N   N19       1.0  0.26377  0.02079  0.49732  1.0000
  H   H13       1.0  0.21154  0.41632  0.48234  1.0000
  C   C41       1.0  0.46831  0.23500  0.42042  1.0000
  C   C42       1.0  0.43098  0.21633  0.42168  1.0000
  H   H14       1.0  0.41790  0.20979  0.48191  1.0000
  N   N20       1.0  0.48765  0.24467  0.49732  1.0000
  C   C43       1.0  0.30170  0.70674  0.34030  1.0000
  C   C44       1.0  0.29211  0.71634  0.25890  1.0000
  N   N21       1.0  0.27409  0.73435  0.25983  1.0000
  C   C45       1.0  0.26442  0.74402  0.33687  1.0000
  C   C46       1.0  0.24571  0.76273  0.33697  1.0000
  H   H15       1.0  0.29851  0.70993  0.19844  1.0000
  N   N22       1.0  0.23601  0.77243  0.26002  1.0000
  C   C47       1.0  0.21799  0.79045  0.25928  1.0000
  H   H16       1.0  0.21156  0.79688  0.19887  1.0000
  C   C48       1.0  0.30170  0.59665  0.34030  1.0000
  C   C49       1.0  0.29211  0.57746  0.25890  1.0000
  N   N23       1.0  0.27409  0.54143  0.25983  1.0000
  C   C50       1.0  0.26442  0.52209  0.33687  1.0000
  C   C51       1.0  0.24571  0.98467  0.33697  1.0000
  H   H17       1.0  0.29851  0.59027  0.19844  1.0000
  N   N24       1.0  0.23601  0.96526  0.26002  1.0000
  C   C52       1.0  0.21800  0.92924  0.25928  1.0000
  H   H18       1.0  0.21157  0.91637  0.19888  1.0000
  C   C53       1.0  0.41179  0.70674  0.34030  1.0000
  C   C54       1.0  0.43099  0.71634  0.25890  1.0000
  N   N25       1.0  0.46701  0.73435  0.25983  1.0000
  C   C55       1.0  0.48636  0.74402  0.33687  1.0000
  H   H19       1.0  0.41817  0.70993  0.19844  1.0000
  C   C56       1.0  0.18980  0.87283  0.34096  1.0000
  N   N26       1.0  0.15378  0.85467  0.34095  1.0000
  N   N27       1.0  0.15378  0.80080  0.34095  1.0000
  C   C57       1.0  0.18979  0.81865  0.34096  1.0000
  N   N28       1.0  0.20765  0.85467  0.34095  1.0000
  C   C58       1.0  0.32034  0.63392  0.34032  1.0000
  N   N29       1.0  0.35636  0.65209  0.34034  1.0000
  C   C59       1.0  0.37452  0.68810  0.34032  1.0000
  N   N30       1.0  0.35636  0.70596  0.34034  1.0000
  C   C60       1.0  0.32034  0.68811  0.34032  1.0000
  N   N31       1.0  0.30249  0.65209  0.34034  1.0000
  C   C61       1.0  0.27344  0.73500  0.42042  1.0000
  C   C62       1.0  0.29211  0.71634  0.42168  1.0000
  H   H20       1.0  0.29865  0.70980  0.48191  1.0000
  C   C63       1.0  0.20843  0.80001  0.34077  1.0000
  C   C64       1.0  0.21805  0.79039  0.42205  1.0000
  C   C65       1.0  0.23672  0.77172  0.42061  1.0000
  N   N32       1.0  0.24642  0.76202  0.49741  1.0000
  N   N33       1.0  0.26377  0.74467  0.49732  1.0000
  H   H21       1.0  0.21154  0.79690  0.48234  1.0000
  C   C66       1.0  0.27344  0.54013  0.42042  1.0000
  C   C67       1.0  0.29211  0.57746  0.42168  1.0000
  H   H22       1.0  0.29865  0.59054  0.48191  1.0000
  C   C68       1.0  0.20843  0.91011  0.34077  1.0000
  C   C69       1.0  0.21806  0.92935  0.42205  1.0000
  C   C70       1.0  0.23672  0.96669  0.42061  1.0000
  N   N34       1.0  0.24642  0.98608  0.49741  1.0000
  N   N35       1.0  0.26377  0.52079  0.49732  1.0000
  H   H23       1.0  0.21154  0.91632  0.48234  1.0000
  C   C71       1.0  0.46831  0.73500  0.42042  1.0000
  C   C72       1.0  0.43098  0.71633  0.42168  1.0000
  H   H24       1.0  0.41790  0.70979  0.48191  1.0000
  N   N36       1.0  0.48765  0.74467  0.49732  1.0000
  C   C73       1.0  0.80170  0.20674  0.34030  1.0000
  C   C74       1.0  0.79211  0.21634  0.25890  1.0000
  N   N37       1.0  0.77409  0.23435  0.25983  1.0000
  C   C75       1.0  0.76442  0.24402  0.33687  1.0000
  C   C76       1.0  0.74571  0.26273  0.33697  1.0000
  H   H25       1.0  0.79852  0.20993  0.19844  1.0000
  N   N38       1.0  0.73601  0.27243  0.26002  1.0000
  C   C77       1.0  0.71800  0.29045  0.25928  1.0000
  H   H26       1.0  0.71156  0.29688  0.19887  1.0000
  C   C78       1.0  0.80170  0.09665  0.34030  1.0000
  C   C79       1.0  0.79211  0.07746  0.25890  1.0000
  N   N39       1.0  0.77409  0.04143  0.25983  1.0000
  C   C80       1.0  0.76442  0.02209  0.33687  1.0000
  C   C81       1.0  0.74571  0.48467  0.33697  1.0000
  H   H27       1.0  0.79851  0.09027  0.19844  1.0000
  N   N40       1.0  0.73601  0.46526  0.26002  1.0000
  C   C82       1.0  0.71800  0.42924  0.25928  1.0000
  H   H28       1.0  0.71157  0.41637  0.19888  1.0000
  C   C83       1.0  0.91180  0.20674  0.34030  1.0000
  C   C84       1.0  0.93099  0.21634  0.25890  1.0000
  N   N41       1.0  0.96702  0.23435  0.25983  1.0000
  C   C85       1.0  0.98636  0.24402  0.33687  1.0000
  C   C86       1.0  0.52378  0.26273  0.33697  1.0000
  H   H29       1.0  0.91817  0.20993  0.19844  1.0000
  N   N42       1.0  0.54318  0.27244  0.26002  1.0000
  C   C87       1.0  0.57921  0.29045  0.25928  1.0000
  H   H30       1.0  0.59207  0.29688  0.19888  1.0000
  C   C88       1.0  0.68980  0.37284  0.34096  1.0000
  N   N43       1.0  0.65378  0.35467  0.34095  1.0000
  C   C89       1.0  0.63561  0.31865  0.34096  1.0000
  N   N44       1.0  0.65378  0.30080  0.34095  1.0000
  C   C90       1.0  0.68979  0.31865  0.34096  1.0000
  N   N45       1.0  0.70764  0.35467  0.34095  1.0000
  C   C91       1.0  0.82034  0.13392  0.34032  1.0000
  N   N46       1.0  0.85636  0.15209  0.34034  1.0000
  C   C92       1.0  0.87453  0.18811  0.34032  1.0000
  N   N47       1.0  0.85636  0.20596  0.34034  1.0000
  C   C93       1.0  0.82034  0.18811  0.34032  1.0000
  N   N48       1.0  0.80249  0.15209  0.34034  1.0000
  C   C94       1.0  0.77345  0.23500  0.42042  1.0000
  C   C95       1.0  0.79211  0.21634  0.42168  1.0000
  H   H31       1.0  0.79865  0.20980  0.48191  1.0000
  C   C96       1.0  0.70843  0.30001  0.34077  1.0000
  C   C97       1.0  0.71805  0.29039  0.42205  1.0000
  C   C98       1.0  0.73672  0.27172  0.42061  1.0000
  N   N49       1.0  0.74642  0.26202  0.49741  1.0000
  N   N50       1.0  0.76378  0.24467  0.49732  1.0000
  H   H32       1.0  0.71154  0.29690  0.48234  1.0000
  C   C99       1.0  0.77344  0.04013  0.42042  1.0000
  C   C100      1.0  0.79211  0.07746  0.42168  1.0000
  H   H33       1.0  0.79865  0.09054  0.48191  1.0000
  C   C101      1.0  0.70843  0.41011  0.34077  1.0000
  C   C102      1.0  0.71806  0.42936  0.42205  1.0000
  C   C103      1.0  0.73672  0.46668  0.42061  1.0000
  N   N51       1.0  0.74642  0.48609  0.49741  1.0000
  N   N52       1.0  0.76377  0.02079  0.49732  1.0000
  H   H34       1.0  0.71154  0.41632  0.48234  1.0000
  C   C104      1.0  0.96831  0.23500  0.42042  1.0000
  C   C105      1.0  0.93098  0.21633  0.42168  1.0000
  H   H35       1.0  0.91790  0.20979  0.48191  1.0000
  C   C106      1.0  0.59834  0.30002  0.34077  1.0000
  C   C107      1.0  0.57909  0.29039  0.42205  1.0000
  C   C108      1.0  0.54176  0.27173  0.42061  1.0000
  N   N53       1.0  0.52236  0.26202  0.49741  1.0000
  N   N54       1.0  0.98765  0.24467  0.49732  1.0000
  H   H36       1.0  0.59212  0.29691  0.48234  1.0000
  C   C109      1.0  0.80170  0.70674  0.34030  1.0000
  C   C110      1.0  0.79211  0.71634  0.25890  1.0000
  N   N55       1.0  0.77409  0.73435  0.25983  1.0000
  C   C111      1.0  0.76442  0.74402  0.33687  1.0000
  C   C112      1.0  0.74571  0.76273  0.33697  1.0000
  H   H37       1.0  0.79851  0.70993  0.19844  1.0000
  N   N56       1.0  0.73601  0.77243  0.26002  1.0000
  C   C113      1.0  0.71799  0.79045  0.25928  1.0000
  H   H38       1.0  0.71156  0.79688  0.19887  1.0000
  C   C114      1.0  0.80170  0.59665  0.34030  1.0000
  C   C115      1.0  0.79211  0.57746  0.25890  1.0000
  N   N57       1.0  0.77409  0.54143  0.25983  1.0000
  C   C116      1.0  0.76442  0.52209  0.33687  1.0000
  C   C117      1.0  0.74571  0.98467  0.33697  1.0000
  H   H39       1.0  0.79851  0.59027  0.19844  1.0000
  N   N58       1.0  0.73601  0.96526  0.26002  1.0000
  C   C118      1.0  0.71800  0.92924  0.25928  1.0000
  H   H40       1.0  0.71157  0.91637  0.19888  1.0000
  C   C119      1.0  0.91180  0.70674  0.34030  1.0000
  C   C120      1.0  0.93099  0.71634  0.25890  1.0000
  N   N59       1.0  0.96701  0.73435  0.25983  1.0000
  C   C121      1.0  0.98636  0.74402  0.33687  1.0000
  C   C122      1.0  0.52378  0.76273  0.33697  1.0000
  H   H41       1.0  0.91817  0.70993  0.19844  1.0000
  N   N60       1.0  0.54318  0.77244  0.26002  1.0000
  C   C123      1.0  0.57921  0.79045  0.25928  1.0000
  H   H42       1.0  0.59207  0.79688  0.19888  1.0000
  C   C124      1.0  0.68980  0.87283  0.34096  1.0000
  N   N61       1.0  0.65378  0.85467  0.34095  1.0000
  C   C125      1.0  0.63561  0.81865  0.34096  1.0000
  N   N62       1.0  0.65378  0.80080  0.34095  1.0000
  C   C126      1.0  0.68979  0.81865  0.34096  1.0000
  N   N63       1.0  0.70765  0.85467  0.34095  1.0000
  C   C127      1.0  0.82034  0.63392  0.34032  1.0000
  N   N64       1.0  0.85635  0.65209  0.34034  1.0000
  C   C128      1.0  0.87453  0.68810  0.34032  1.0000
  N   N65       1.0  0.85636  0.70596  0.34034  1.0000
  C   C129      1.0  0.82034  0.68811  0.34032  1.0000
  N   N66       1.0  0.80249  0.65209  0.34034  1.0000
  C   C130      1.0  0.77345  0.73500  0.42042  1.0000
  C   C131      1.0  0.79211  0.71634  0.42168  1.0000
  H   H43       1.0  0.79865  0.70980  0.48191  1.0000
  C   C132      1.0  0.70843  0.80001  0.34077  1.0000
  C   C133      1.0  0.71805  0.79039  0.42205  1.0000
  C   C134      1.0  0.73672  0.77172  0.42061  1.0000
  N   N67       1.0  0.74642  0.76202  0.49741  1.0000
  N   N68       1.0  0.76377  0.74467  0.49732  1.0000
  H   H44       1.0  0.71154  0.79690  0.48234  1.0000
  C   C135      1.0  0.77344  0.54013  0.42042  1.0000
  C   C136      1.0  0.79211  0.57746  0.42168  1.0000
  H   H45       1.0  0.79865  0.59054  0.48191  1.0000
  C   C137      1.0  0.70843  0.91011  0.34077  1.0000
  C   C138      1.0  0.71806  0.92935  0.42205  1.0000
  C   C139      1.0  0.73672  0.96669  0.42061  1.0000
  N   N69       1.0  0.74642  0.98608  0.49741  1.0000
  N   N70       1.0  0.76377  0.52079  0.49732  1.0000
  H   H46       1.0  0.71154  0.91632  0.48234  1.0000
  C   C140      1.0  0.96831  0.73500  0.42042  1.0000
  C   C141      1.0  0.93098  0.71633  0.42168  1.0000
  H   H47       1.0  0.91790  0.70979  0.48191  1.0000
  C   C142      1.0  0.59834  0.80001  0.34077  1.0000
  C   C143      1.0  0.57909  0.79039  0.42205  1.0000
  C   C144      1.0  0.54176  0.77173  0.42061  1.0000
  N   N71       1.0  0.52236  0.76202  0.49741  1.0000
  N   N72       1.0  0.98765  0.74467  0.49732  1.0000
  H   H48       1.0  0.59212  0.79691  0.48234  1.0000
