data_image0
_chemical_formula_structural       C2NC2HNHNC2HNHNC2HNHNCNCNC3O3NCNCNC3O3CNC2N2HCNC2N2HCNC2N2HC2NC2HNHNC2HNHNC2HNHNCNCNC3O3NCNCNC3O3CNC2N2HCNC2N2HCNC2N2HC2NC2HNHNC2HNHNC2HNHNCNCNC3O3NCNCNC3O3CNC2N2HCNC2N2HCNC2N2HC2NC2HNHNC2HNHNC2HNHNCNCNC3O3NCNCNC3O3CNC2N2HCNC2N2HCNC2N2H
_chemical_formula_sum              "C108 N84 H36 O24"
_cell_length_a       43.1862
_cell_length_b       43.1862
_cell_length_c       15.054
_cell_angle_alpha    90
_cell_angle_beta     90
_cell_angle_gamma    120

_space_group_name_H-M_alt    "P 1"
_space_group_IT_number       1

loop_
  _space_group_symop_operation_xyz
  'x, y, z'

loop_
  _atom_site_type_symbol
  _atom_site_label
  _atom_site_symmetry_multiplicity
  _atom_site_fract_x
  _atom_site_fract_y
  _atom_site_fract_z
  _atom_site_occupancy
  C   C1        1.0  0.12816  0.32054  0.25335  1.0000
  C   C2        1.0  0.36665  0.17674  0.42416  1.0000
  N   N1        1.0  0.28062  0.25920  0.34904  1.0000
  C   C3        1.0  0.26977  0.28132  0.31564  1.0000
  C   C4        1.0  0.23286  0.26855  0.30515  1.0000
  H   H1        1.0  0.28851  0.30686  0.29854  1.0000
  N   N2        1.0  0.22061  0.29023  0.27511  1.0000
  H   H2        1.0  0.23865  0.31514  0.26448  1.0000
  N   N3        1.0  0.23632  0.02052  0.34902  1.0000
  C   C5        1.0  0.21420  0.48756  0.31560  1.0000
  C   C6        1.0  0.22698  0.46343  0.30506  1.0000
  H   H3        1.0  0.18866  0.48075  0.29852  1.0000
  N   N4        1.0  0.20530  0.42950  0.27499  1.0000
  H   H4        1.0  0.18038  0.42263  0.26439  1.0000
  N   N5        1.0  0.47499  0.21489  0.34904  1.0000
  C   C7        1.0  0.00796  0.22574  0.31565  1.0000
  C   C8        1.0  0.03209  0.26265  0.30517  1.0000
  H   H5        1.0  0.01476  0.20700  0.29855  1.0000
  N   N6        1.0  0.06603  0.27490  0.27515  1.0000
  H   H6        1.0  0.07290  0.25686  0.26455  1.0000
  N   N7        1.0  0.15320  0.35582  0.25392  1.0000
  C   C9        1.0  0.18878  0.36736  0.25327  1.0000
  N   N8        1.0  0.19903  0.34232  0.25390  1.0000
  C   C10       1.0  0.17499  0.30673  0.25332  1.0000
  N   N9        1.0  0.13970  0.29650  0.25400  1.0000
  C   C11       1.0  0.21446  0.40373  0.26371  1.0000
  C   C12       1.0  0.18567  0.28106  0.26389  1.0000
  C   C13       1.0  0.09180  0.30984  0.26393  1.0000
  O   O1        1.0  0.15917  0.24647  0.27028  1.0000
  O   O2        1.0  0.08368  0.33633  0.27017  1.0000
  O   O3        1.0  0.24905  0.41181  0.27013  1.0000
  N   N10       1.0  0.34225  0.14126  0.42352  1.0000
  C   C14       1.0  0.30649  0.12886  0.42410  1.0000
  N   N11       1.0  0.29540  0.15325  0.42352  1.0000
  C   C15       1.0  0.31877  0.18901  0.42414  1.0000
  N   N12       1.0  0.35424  0.20010  0.42356  1.0000
  C   C16       1.0  0.28150  0.09224  0.41419  1.0000
  C   C17       1.0  0.30716  0.21401  0.41424  1.0000
  C   C18       1.0  0.40326  0.18834  0.41426  1.0000
  O   O4        1.0  0.33305  0.24885  0.40806  1.0000
  O   O5        1.0  0.41218  0.16244  0.40794  1.0000
  O   O6        1.0  0.24666  0.08330  0.40803  1.0000
  C   C19       1.0  0.25836  0.22478  0.37493  1.0000
  N   N13       1.0  0.21051  0.23425  0.33130  1.0000
  C   C20       1.0  0.22116  0.21197  0.36494  1.0000
  C   C21       1.0  0.19593  0.18015  0.38726  1.0000
  N   N14       1.0  0.17363  0.15212  0.40735  1.0000
  N   N15       1.0  0.27193  0.20398  0.40406  1.0000
  H   H7        1.0  0.25469  0.17890  0.41484  1.0000
  C   C22       1.0  0.27074  0.03268  0.37491  1.0000
  N   N16       1.0  0.26128  0.47537  0.33118  1.0000
  C   C23       1.0  0.28356  0.00830  0.36486  1.0000
  C   C24       1.0  0.31539  0.01490  0.38709  1.0000
  N   N17       1.0  0.34343  0.02064  0.40711  1.0000
  N   N18       1.0  0.29155  0.06706  0.40401  1.0000
  H   H8        1.0  0.31662  0.07490  0.41476  1.0000
  C   C25       1.0  0.46283  0.23715  0.37494  1.0000
  N   N19       1.0  0.02015  0.28500  0.33131  1.0000
  C   C26       1.0  0.48721  0.27434  0.36494  1.0000
  C   C27       1.0  0.48061  0.29957  0.38726  1.0000
  N   N20       1.0  0.47489  0.32188  0.40736  1.0000
  N   N21       1.0  0.42845  0.22357  0.40405  1.0000
  H   H9        1.0  0.42062  0.24081  0.41488  1.0000
  C   C28       1.0  0.12816  0.82054  0.25335  1.0000
  C   C29       1.0  0.36665  0.67674  0.42416  1.0000
  N   N22       1.0  0.28062  0.75921  0.34904  1.0000
  C   C30       1.0  0.26977  0.78133  0.31564  1.0000
  C   C31       1.0  0.23286  0.76855  0.30515  1.0000
  H   H10       1.0  0.28851  0.80686  0.29854  1.0000
  N   N23       1.0  0.22061  0.79023  0.27511  1.0000
  H   H11       1.0  0.23865  0.81514  0.26448  1.0000
  N   N24       1.0  0.23632  0.52052  0.34902  1.0000
  C   C32       1.0  0.21420  0.98755  0.31560  1.0000
  C   C33       1.0  0.22698  0.96343  0.30506  1.0000
  H   H12       1.0  0.18866  0.98075  0.29852  1.0000
  N   N25       1.0  0.20530  0.92950  0.27499  1.0000
  H   H13       1.0  0.18038  0.92263  0.26439  1.0000
  N   N26       1.0  0.47499  0.71489  0.34904  1.0000
  C   C34       1.0  0.00796  0.72573  0.31565  1.0000
  C   C35       1.0  0.03209  0.76265  0.30517  1.0000
  H   H14       1.0  0.01476  0.70700  0.29855  1.0000
  N   N27       1.0  0.06603  0.77490  0.27515  1.0000
  H   H15       1.0  0.07290  0.75686  0.26455  1.0000
  N   N28       1.0  0.15320  0.85582  0.25392  1.0000
  C   C36       1.0  0.18878  0.86736  0.25327  1.0000
  N   N29       1.0  0.19903  0.84232  0.25390  1.0000
  C   C37       1.0  0.17499  0.80674  0.25332  1.0000
  N   N30       1.0  0.13970  0.79650  0.25400  1.0000
  C   C38       1.0  0.21446  0.90373  0.26371  1.0000
  C   C39       1.0  0.18567  0.78106  0.26389  1.0000
  C   C40       1.0  0.09180  0.80984  0.26393  1.0000
  O   O7        1.0  0.15917  0.74648  0.27028  1.0000
  O   O8        1.0  0.08368  0.83633  0.27017  1.0000
  O   O9        1.0  0.24904  0.91181  0.27013  1.0000
  N   N31       1.0  0.34225  0.64126  0.42352  1.0000
  C   C41       1.0  0.30649  0.62886  0.42410  1.0000
  N   N32       1.0  0.29540  0.65325  0.42352  1.0000
  C   C42       1.0  0.31876  0.68901  0.42414  1.0000
  N   N33       1.0  0.35424  0.70010  0.42356  1.0000
  C   C43       1.0  0.28150  0.59224  0.41419  1.0000
  C   C44       1.0  0.30716  0.71401  0.41424  1.0000
  C   C45       1.0  0.40326  0.68834  0.41426  1.0000
  O   O10       1.0  0.33305  0.74885  0.40806  1.0000
  O   O11       1.0  0.41218  0.66244  0.40794  1.0000
  O   O12       1.0  0.24666  0.58330  0.40803  1.0000
  C   C46       1.0  0.25836  0.72478  0.37493  1.0000
  N   N34       1.0  0.21051  0.73425  0.33130  1.0000
  C   C47       1.0  0.22116  0.71197  0.36494  1.0000
  C   C48       1.0  0.19593  0.68015  0.38726  1.0000
  N   N35       1.0  0.17363  0.65212  0.40735  1.0000
  N   N36       1.0  0.27193  0.70398  0.40406  1.0000
  H   H16       1.0  0.25469  0.67890  0.41484  1.0000
  C   C49       1.0  0.27074  0.53268  0.37491  1.0000
  N   N37       1.0  0.26128  0.97537  0.33118  1.0000
  C   C50       1.0  0.28356  0.50830  0.36486  1.0000
  C   C51       1.0  0.31539  0.51490  0.38709  1.0000
  N   N38       1.0  0.34343  0.52064  0.40711  1.0000
  N   N39       1.0  0.29155  0.56706  0.40401  1.0000
  H   H17       1.0  0.31662  0.57490  0.41476  1.0000
  C   C52       1.0  0.46283  0.73715  0.37494  1.0000
  N   N40       1.0  0.02015  0.78500  0.33131  1.0000
  C   C53       1.0  0.48721  0.77434  0.36494  1.0000
  C   C54       1.0  0.48061  0.79957  0.38726  1.0000
  N   N41       1.0  0.47489  0.82188  0.40736  1.0000
  N   N42       1.0  0.42845  0.72357  0.40405  1.0000
  H   H18       1.0  0.42062  0.74081  0.41488  1.0000
  C   C55       1.0  0.62816  0.32054  0.25335  1.0000
  C   C56       1.0  0.86665  0.17674  0.42416  1.0000
  N   N43       1.0  0.78062  0.25920  0.34904  1.0000
  C   C57       1.0  0.76977  0.28132  0.31564  1.0000
  C   C58       1.0  0.73286  0.26855  0.30515  1.0000
  H   H19       1.0  0.78851  0.30686  0.29854  1.0000
  N   N44       1.0  0.72061  0.29023  0.27511  1.0000
  H   H20       1.0  0.73865  0.31514  0.26448  1.0000
  N   N45       1.0  0.73632  0.02052  0.34902  1.0000
  C   C59       1.0  0.71420  0.48756  0.31560  1.0000
  C   C60       1.0  0.72698  0.46343  0.30506  1.0000
  H   H21       1.0  0.68866  0.48075  0.29852  1.0000
  N   N46       1.0  0.70530  0.42950  0.27499  1.0000
  H   H22       1.0  0.68039  0.42263  0.26439  1.0000
  N   N47       1.0  0.97499  0.21489  0.34904  1.0000
  C   C61       1.0  0.50796  0.22574  0.31565  1.0000
  C   C62       1.0  0.53209  0.26265  0.30517  1.0000
  H   H23       1.0  0.51476  0.20700  0.29855  1.0000
  N   N48       1.0  0.56603  0.27490  0.27515  1.0000
  H   H24       1.0  0.57290  0.25686  0.26455  1.0000
  N   N49       1.0  0.65320  0.35582  0.25392  1.0000
  C   C63       1.0  0.68878  0.36736  0.25327  1.0000
  N   N50       1.0  0.69903  0.34232  0.25390  1.0000
  C   C64       1.0  0.67499  0.30673  0.25332  1.0000
  N   N51       1.0  0.63971  0.29650  0.25400  1.0000
  C   C65       1.0  0.71446  0.40373  0.26371  1.0000
  C   C66       1.0  0.68567  0.28106  0.26389  1.0000
  C   C67       1.0  0.59180  0.30984  0.26393  1.0000
  O   O13       1.0  0.65917  0.24647  0.27028  1.0000
  O   O14       1.0  0.58369  0.33633  0.27017  1.0000
  O   O15       1.0  0.74905  0.41181  0.27013  1.0000
  N   N52       1.0  0.84225  0.14126  0.42352  1.0000
  C   C68       1.0  0.80649  0.12886  0.42410  1.0000
  N   N53       1.0  0.79540  0.15325  0.42352  1.0000
  C   C69       1.0  0.81876  0.18901  0.42414  1.0000
  N   N54       1.0  0.85424  0.20010  0.42356  1.0000
  C   C70       1.0  0.78150  0.09224  0.41419  1.0000
  C   C71       1.0  0.80716  0.21401  0.41424  1.0000
  C   C72       1.0  0.90326  0.18834  0.41426  1.0000
  O   O16       1.0  0.83306  0.24885  0.40806  1.0000
  O   O17       1.0  0.91218  0.16244  0.40794  1.0000
  O   O18       1.0  0.74666  0.08330  0.40803  1.0000
  C   C73       1.0  0.75836  0.22478  0.37493  1.0000
  N   N55       1.0  0.71051  0.23425  0.33130  1.0000
  C   C74       1.0  0.72116  0.21197  0.36494  1.0000
  C   C75       1.0  0.69593  0.18015  0.38726  1.0000
  N   N56       1.0  0.67363  0.15212  0.40735  1.0000
  N   N57       1.0  0.77193  0.20398  0.40406  1.0000
  H   H25       1.0  0.75469  0.17890  0.41484  1.0000
  C   C76       1.0  0.77074  0.03268  0.37491  1.0000
  N   N58       1.0  0.76128  0.47537  0.33118  1.0000
  C   C77       1.0  0.78356  0.00830  0.36486  1.0000
  C   C78       1.0  0.81539  0.01490  0.38709  1.0000
  N   N59       1.0  0.84343  0.02064  0.40711  1.0000
  N   N60       1.0  0.79155  0.06706  0.40401  1.0000
  H   H26       1.0  0.81662  0.07490  0.41476  1.0000
  C   C79       1.0  0.96283  0.23715  0.37494  1.0000
  N   N61       1.0  0.52015  0.28500  0.33131  1.0000
  C   C80       1.0  0.98721  0.27434  0.36494  1.0000
  C   C81       1.0  0.98061  0.29957  0.38726  1.0000
  N   N62       1.0  0.97489  0.32188  0.40736  1.0000
  N   N63       1.0  0.92845  0.22357  0.40405  1.0000
  H   H27       1.0  0.92062  0.24081  0.41488  1.0000
  C   C82       1.0  0.62816  0.82054  0.25335  1.0000
  C   C83       1.0  0.86665  0.67674  0.42416  1.0000
  N   N64       1.0  0.78062  0.75921  0.34904  1.0000
  C   C84       1.0  0.76977  0.78133  0.31564  1.0000
  C   C85       1.0  0.73286  0.76855  0.30515  1.0000
  H   H28       1.0  0.78851  0.80686  0.29854  1.0000
  N   N65       1.0  0.72061  0.79023  0.27511  1.0000
  H   H29       1.0  0.73865  0.81514  0.26448  1.0000
  N   N66       1.0  0.73632  0.52052  0.34902  1.0000
  C   C86       1.0  0.71420  0.98755  0.31560  1.0000
  C   C87       1.0  0.72698  0.96343  0.30506  1.0000
  H   H30       1.0  0.68866  0.98075  0.29852  1.0000
  N   N67       1.0  0.70530  0.92950  0.27499  1.0000
  H   H31       1.0  0.68039  0.92263  0.26439  1.0000
  N   N68       1.0  0.97499  0.71489  0.34904  1.0000
  C   C88       1.0  0.50796  0.72573  0.31565  1.0000
  C   C89       1.0  0.53209  0.76265  0.30517  1.0000
  H   H32       1.0  0.51476  0.70700  0.29855  1.0000
  N   N69       1.0  0.56603  0.77490  0.27515  1.0000
  H   H33       1.0  0.57290  0.75686  0.26455  1.0000
  N   N70       1.0  0.65320  0.85582  0.25392  1.0000
  C   C90       1.0  0.68878  0.86736  0.25327  1.0000
  N   N71       1.0  0.69903  0.84232  0.25390  1.0000
  C   C91       1.0  0.67499  0.80674  0.25332  1.0000
  N   N72       1.0  0.63970  0.79650  0.25400  1.0000
  C   C92       1.0  0.71446  0.90373  0.26371  1.0000
  C   C93       1.0  0.68567  0.78106  0.26389  1.0000
  C   C94       1.0  0.59180  0.80984  0.26393  1.0000
  O   O19       1.0  0.65917  0.74648  0.27028  1.0000
  O   O20       1.0  0.58368  0.83633  0.27017  1.0000
  O   O21       1.0  0.74905  0.91181  0.27013  1.0000
  N   N73       1.0  0.84225  0.64126  0.42352  1.0000
  C   C95       1.0  0.80649  0.62886  0.42410  1.0000
  N   N74       1.0  0.79540  0.65325  0.42352  1.0000
  C   C96       1.0  0.81876  0.68901  0.42414  1.0000
  N   N75       1.0  0.85425  0.70010  0.42356  1.0000
  C   C97       1.0  0.78150  0.59224  0.41419  1.0000
  C   C98       1.0  0.80716  0.71401  0.41424  1.0000
  C   C99       1.0  0.90326  0.68834  0.41426  1.0000
  O   O22       1.0  0.83305  0.74885  0.40806  1.0000
  O   O23       1.0  0.91219  0.66244  0.40794  1.0000
  O   O24       1.0  0.74666  0.58330  0.40803  1.0000
  C   C100      1.0  0.75836  0.72478  0.37493  1.0000
  N   N76       1.0  0.71051  0.73425  0.33130  1.0000
  C   C101      1.0  0.72116  0.71197  0.36494  1.0000
  C   C102      1.0  0.69593  0.68015  0.38726  1.0000
  N   N77       1.0  0.67363  0.65212  0.40735  1.0000
  N   N78       1.0  0.77193  0.70398  0.40406  1.0000
  H   H34       1.0  0.75469  0.67890  0.41484  1.0000
  C   C103      1.0  0.77074  0.53268  0.37491  1.0000
  N   N79       1.0  0.76128  0.97537  0.33118  1.0000
  C   C104      1.0  0.78356  0.50830  0.36486  1.0000
  C   C105      1.0  0.81539  0.51490  0.38709  1.0000
  N   N80       1.0  0.84343  0.52064  0.40711  1.0000
  N   N81       1.0  0.79155  0.56706  0.40401  1.0000
  H   H35       1.0  0.81663  0.57490  0.41476  1.0000
  C   C106      1.0  0.96283  0.73715  0.37494  1.0000
  N   N82       1.0  0.52015  0.78500  0.33131  1.0000
  C   C107      1.0  0.98721  0.77434  0.36494  1.0000
  C   C108      1.0  0.98062  0.79957  0.38726  1.0000
  N   N83       1.0  0.97489  0.82188  0.40736  1.0000
  N   N84       1.0  0.92845  0.72357  0.40405  1.0000
  H   H36       1.0  0.92062  0.74081  0.41488  1.0000
