data_image0
_chemical_formula_structural       CNCHC3NH2C4NH3C4NH3N12CN2CNCNCNCNCNCNCNCNCNCNCNCNCNCNCNCN6C4NH3C4NH3C4NH3C4NH3C4NH3C4NH3
_chemical_formula_sum              "C54 N45 H27"
_cell_length_a       30.277
_cell_length_b       30.277
_cell_length_c       14.8854
_cell_angle_alpha    90
_cell_angle_beta     90
_cell_angle_gamma    120

_space_group_name_H-M_alt    "P 1"
_space_group_IT_number       1

loop_
  _space_group_symop_operation_xyz
  'x, y, z'

loop_
  _atom_site_type_symbol
  _atom_site_label
  _atom_site_symmetry_multiplicity
  _atom_site_fract_x
  _atom_site_fract_y
  _atom_site_fract_z
  _atom_site_occupancy
  C   C1        1.0  0.03552  0.57573  0.36666  1.0000
  N   N1        1.0  0.02998  0.49815  0.40675  1.0000
  C   C2        1.0  0.06076  0.54877  0.39022  1.0000
  H   H1        1.0  0.05684  0.61323  0.34823  1.0000
  C   C3        1.0  0.11495  0.57151  0.38132  1.0000
  C   C4        1.0  0.98176  0.55093  0.35662  1.0000
  C   C5        1.0  0.95256  0.49794  0.37938  1.0000
  N   N2        1.0  0.96278  0.57924  0.31951  1.0000
  H   H2        1.0  0.98522  0.61470  0.30240  1.0000
  H   H3        1.0  0.92864  0.56395  0.29585  1.0000
  C   C6        1.0  0.46109  0.51411  0.38998  1.0000
  C   C7        1.0  0.43377  0.46159  0.36882  1.0000
  C   C8        1.0  0.45837  0.43243  0.35887  1.0000
  C   C9        1.0  0.51168  0.45645  0.37928  1.0000
  N   N3        1.0  0.42928  0.38453  0.32455  1.0000
  H   H4        1.0  0.39346  0.37115  0.30966  1.0000
  H   H5        1.0  0.44368  0.36453  0.30266  1.0000
  H   H6        1.0  0.39602  0.44525  0.35200  1.0000
  C   C10       1.0  0.49544  0.94887  0.39076  1.0000
  C   C11       1.0  0.54797  0.97402  0.36978  1.0000
  C   C12       1.0  0.57717  0.02779  0.35983  1.0000
  C   C13       1.0  0.55314  0.05709  0.38015  1.0000
  N   N4        1.0  0.62511  0.04663  0.32565  1.0000
  H   H7        1.0  0.63831  0.02409  0.31034  1.0000
  H   H8        1.0  0.64470  0.08084  0.30278  1.0000
  H   H9        1.0  0.56436  0.95262  0.35320  1.0000
  N   N5        1.0  0.26375  0.57376  0.28657  1.0000
  N   N6        1.0  0.30516  0.57167  0.28573  1.0000
  N   N7        1.0  0.43614  0.69216  0.28629  1.0000
  N   N8        1.0  0.43810  0.73559  0.28578  1.0000
  N   N9        1.0  0.31740  0.74623  0.28588  1.0000
  N   N10       1.0  0.27391  0.70481  0.28499  1.0000
  N   N11       1.0  0.73637  0.43628  0.28762  1.0000
  N   N12       1.0  0.69213  0.43236  0.28501  1.0000
  N   N13       1.0  0.57376  0.30207  0.28741  1.0000
  N   N14       1.0  0.57768  0.26174  0.28538  1.0000
  N   N15       1.0  0.70764  0.27347  0.28842  1.0000
  N   N16       1.0  0.74791  0.31776  0.28646  1.0000
  C   C14       1.0  0.19369  0.64599  0.34087  1.0000
  N   N17       1.0  0.14452  0.62352  0.36954  1.0000
  N   N18       1.0  0.13741  0.54185  0.37040  1.0000
  C   C15       1.0  0.18677  0.56205  0.34183  1.0000
  N   N19       1.0  0.21065  0.61296  0.32802  1.0000
  C   C16       1.0  0.36390  0.54994  0.34085  1.0000
  N   N20       1.0  0.38637  0.52323  0.36952  1.0000
  C   C17       1.0  0.43841  0.54560  0.38098  1.0000
  N   N21       1.0  0.46809  0.59770  0.36988  1.0000
  C   C18       1.0  0.44791  0.62690  0.34143  1.0000
  N   N22       1.0  0.39698  0.59989  0.32794  1.0000
  C   C19       1.0  0.45954  0.81582  0.34174  1.0000
  N   N23       1.0  0.48629  0.86503  0.37027  1.0000
  C   C20       1.0  0.46392  0.89470  0.38178  1.0000
  N   N24       1.0  0.41185  0.87232  0.37048  1.0000
  C   C21       1.0  0.38266  0.82296  0.34198  1.0000
  N   N25       1.0  0.40962  0.79897  0.32845  1.0000
  C   C22       1.0  0.82586  0.38412  0.33771  1.0000
  N   N26       1.0  0.87594  0.41397  0.36151  1.0000
  C   C23       1.0  0.89810  0.46620  0.37170  1.0000
  N   N27       1.0  0.86697  0.48719  0.36584  1.0000
  C   C24       1.0  0.81704  0.46011  0.34116  1.0000
  N   N28       1.0  0.80095  0.41034  0.32788  1.0000
  C   C25       1.0  0.62562  0.44392  0.33557  1.0000
  N   N29       1.0  0.59573  0.46401  0.36008  1.0000
  C   C26       1.0  0.54353  0.43388  0.37070  1.0000
  N   N30       1.0  0.52269  0.38179  0.36484  1.0000
  C   C27       1.0  0.54975  0.35902  0.33965  1.0000
  N   N31       1.0  0.59947  0.39277  0.32598  1.0000
  C   C28       1.0  0.56586  0.18361  0.33631  1.0000
  N   N32       1.0  0.54569  0.13364  0.36086  1.0000
  C   C29       1.0  0.57577  0.11152  0.37163  1.0000
  N   N33       1.0  0.62787  0.14271  0.36593  1.0000
  C   C30       1.0  0.65072  0.19254  0.34073  1.0000
  N   N34       1.0  0.61700  0.20854  0.32694  1.0000
  N   N35       1.0  0.97996  0.47503  0.40274  1.0000
  N   N36       1.0  0.53491  0.50708  0.40057  1.0000
  N   N37       1.0  0.51191  0.53408  0.40457  1.0000
  N   N38       1.0  0.50250  0.02972  0.40132  1.0000
  N   N39       1.0  0.47546  0.97971  0.40528  1.0000
  C   C31       1.0  0.31207  0.53707  0.33187  1.0000
  C   C32       1.0  0.26749  0.49769  0.37318  1.0000
  C   C33       1.0  0.22121  0.50003  0.37530  1.0000
  C   C34       1.0  0.22078  0.54238  0.33353  1.0000
  N   N40       1.0  0.18076  0.46473  0.42314  1.0000
  H   H10       1.0  0.18161  0.43636  0.45219  1.0000
  H   H11       1.0  0.14898  0.46519  0.42605  1.0000
  H   H12       1.0  0.27030  0.47075  0.41025  1.0000
  C   C35       1.0  0.47261  0.77705  0.33216  1.0000
  C   C36       1.0  0.51205  0.77189  0.37333  1.0000
  C   C37       1.0  0.50983  0.72332  0.37512  1.0000
  C   C38       1.0  0.46756  0.68058  0.33316  1.0000
  N   N41       1.0  0.54514  0.71818  0.42293  1.0000
  H   H13       1.0  0.57346  0.74738  0.45211  1.0000
  H   H14       1.0  0.54477  0.68597  0.42562  1.0000
  H   H15       1.0  0.53890  0.80158  0.41061  1.0000
  C   C39       1.0  0.23240  0.69785  0.33120  1.0000
  C   C40       1.0  0.23763  0.74234  0.37298  1.0000
  C   C41       1.0  0.28627  0.78857  0.37531  1.0000
  C   C42       1.0  0.32899  0.78914  0.33306  1.0000
  N   N42       1.0  0.29147  0.82887  0.42372  1.0000
  H   H16       1.0  0.26235  0.82785  0.45348  1.0000
  H   H17       1.0  0.32378  0.86055  0.42723  1.0000
  H   H18       1.0  0.20798  0.73932  0.41063  1.0000
  C   C43       1.0  0.67921  0.46390  0.32751  1.0000
  C   C44       1.0  0.72091  0.50726  0.36751  1.0000
  C   C45       1.0  0.77061  0.51197  0.37132  1.0000
  C   C46       1.0  0.77740  0.47238  0.33319  1.0000
  N   N43       1.0  0.80866  0.55140  0.41709  1.0000
  H   H19       1.0  0.80363  0.57790  0.44378  1.0000
  H   H20       1.0  0.84253  0.55556  0.42131  1.0000
  H   H21       1.0  0.71395  0.53229  0.40224  1.0000
  C   C47       1.0  0.54610  0.21742  0.32820  1.0000
  C   C48       1.0  0.50257  0.21577  0.36740  1.0000
  C   C49       1.0  0.49788  0.26077  0.37064  1.0000
  C   C50       1.0  0.53761  0.30711  0.33257  1.0000
  N   N44       1.0  0.45831  0.25945  0.41582  1.0000
  H   H22       1.0  0.43173  0.22795  0.44245  1.0000
  H   H23       1.0  0.45415  0.28916  0.41968  1.0000
  H   H24       1.0  0.47739  0.18379  0.40201  1.0000
  C   C51       1.0  0.79220  0.33055  0.32942  1.0000
  C   C52       1.0  0.79391  0.28872  0.36868  1.0000
  C   C53       1.0  0.74895  0.23900  0.37190  1.0000
  C   C54       1.0  0.70262  0.23232  0.33368  1.0000
  N   N45       1.0  0.75029  0.20081  0.41723  1.0000
  H   H25       1.0  0.78178  0.20576  0.44398  1.0000
  H   H26       1.0  0.72060  0.16691  0.42108  1.0000
  H   H27       1.0  0.82587  0.29558  0.40344  1.0000
