data_image0
_chemical_formula_structural       CNC2NC4NC18H14C2NC16H12C3NC2NC5NC4NC18H14CNC16H12C11H11CNCNC4NC16H13C2H2C2H2C2H2C2H2C2H2C2H2C2H2C2H2C3H2C3H2C2H2C2H2C7NC12H12C2NC3NC3NC18H14C12H12C3NC3NC3NC18H14C3NC3NC2NC5NC20H15C8NC14H13C4HNH2C4HNH2C4HNH2C4HNH2C4HNH2C4HNH2C4HNH2C4HNH2C3HNH2C3HNH2C4HNH2C4HNH2
_chemical_formula_sum              "C336 N36 H216"
_cell_length_a       57.2563
_cell_length_b       57.2562
_cell_length_c       15.016
_cell_angle_alpha    90.0018
_cell_angle_beta     89.9654
_cell_angle_gamma    120

_space_group_name_H-M_alt    "P 1"
_space_group_IT_number       1

loop_
  _space_group_symop_operation_xyz
  'x, y, z'

loop_
  _atom_site_type_symbol
  _atom_site_label
  _atom_site_symmetry_multiplicity
  _atom_site_fract_x
  _atom_site_fract_y
  _atom_site_fract_z
  _atom_site_occupancy
  C   C1        1.0  0.28503  0.52884  0.32378  1.0000
  N   N1        1.0  0.27624  0.48705  0.33053  1.0000
  C   C2        1.0  0.30356  0.50224  0.32863  1.0000
  C   C3        1.0  0.32348  0.49423  0.32959  1.0000
  N   N2        1.0  0.29302  0.44432  0.33122  1.0000
  C   C4        1.0  0.29494  0.42172  0.33229  1.0000
  C   C5        1.0  0.32253  0.43055  0.33436  1.0000
  C   C6        1.0  0.33639  0.45830  0.33161  1.0000
  C   C7        1.0  0.27371  0.39439  0.33215  1.0000
  N   N3        1.0  0.23351  0.40125  0.33189  1.0000
  C   C8        1.0  0.20621  0.38606  0.33488  1.0000
  C   C9        1.0  0.22473  0.35942  0.33606  1.0000
  C   C10       1.0  0.21483  0.46673  0.33137  1.0000
  C   C11       1.0  0.23604  0.49406  0.33101  1.0000
  C   C12       1.0  0.22885  0.51473  0.33444  1.0000
  C   C13       1.0  0.21441  0.51827  0.26443  1.0000
  C   C14       1.0  0.20759  0.53869  0.26843  1.0000
  C   C15       1.0  0.21644  0.55752  0.33951  1.0000
  C   C16       1.0  0.14640  0.35464  0.26824  1.0000
  C   C17       1.0  0.11900  0.33464  0.27224  1.0000
  C   C18       1.0  0.28116  0.37395  0.33080  1.0000
  C   C19       1.0  0.29964  0.33537  0.33187  1.0000
  C   C20       1.0  0.30458  0.35312  0.25889  1.0000
  C   C21       1.0  0.29486  0.37131  0.25687  1.0000
  C   C22       1.0  0.35129  0.51490  0.32800  1.0000
  C   C23       1.0  0.36231  0.53196  0.25344  1.0000
  C   C24       1.0  0.38882  0.55388  0.25540  1.0000
  C   C25       1.0  0.40640  0.55890  0.32895  1.0000
  H   H1        1.0  0.39451  0.56660  0.20217  1.0000
  H   H2        1.0  0.35051  0.52952  0.19904  1.0000
  H   H3        1.0  0.28369  0.54594  0.31976  1.0000
  H   H4        1.0  0.26662  0.46774  0.33462  1.0000
  H   H5        1.0  0.24312  0.42058  0.32780  1.0000
  H   H6        1.0  0.35693  0.46987  0.33103  1.0000
  H   H7        1.0  0.33159  0.41908  0.33686  1.0000
  H   H8        1.0  0.29922  0.38374  0.20286  1.0000
  H   H9        1.0  0.31621  0.35398  0.20618  1.0000
  H   H10       1.0  0.22610  0.34231  0.33698  1.0000
  H   H11       1.0  0.15755  0.35519  0.21415  1.0000
  H   H12       1.0  0.11127  0.32107  0.22108  1.0000
  H   H13       1.0  0.19655  0.54004  0.21720  1.0000
  H   H14       1.0  0.20845  0.50573  0.21028  1.0000
  C   C26       1.0  0.53686  0.75594  0.32352  1.0000
  C   C27       1.0  0.56345  0.80106  0.32891  1.0000
  N   N4        1.0  0.62136  0.84844  0.33175  1.0000
  C   C28       1.0  0.64395  0.87296  0.33291  1.0000
  C   C29       1.0  0.63513  0.89172  0.33526  1.0000
  C   C30       1.0  0.60737  0.87782  0.33263  1.0000
  C   C31       1.0  0.67129  0.87906  0.33253  1.0000
  C   C32       1.0  0.67963  0.81990  0.33503  1.0000
  C   C33       1.0  0.70626  0.86507  0.33580  1.0000
  C   C34       1.0  0.59897  0.74786  0.33195  1.0000
  C   C35       1.0  0.54747  0.69588  0.26495  1.0000
  C   C36       1.0  0.52702  0.66865  0.26891  1.0000
  C   C37       1.0  0.71106  0.79148  0.26863  1.0000
  C   C38       1.0  0.73105  0.78408  0.27263  1.0000
  C   C39       1.0  0.69172  0.90695  0.33111  1.0000
  C   C40       1.0  0.71253  0.95119  0.25913  1.0000
  C   C41       1.0  0.69435  0.92328  0.25720  1.0000
  C   C42       1.0  0.53380  0.83014  0.25386  1.0000
  C   C43       1.0  0.51190  0.83478  0.25565  1.0000
  H   H15       1.0  0.49926  0.82780  0.20225  1.0000
  H   H16       1.0  0.53633  0.82087  0.19936  1.0000
  H   H17       1.0  0.51978  0.73749  0.31949  1.0000
  H   H18       1.0  0.59580  0.88680  0.33213  1.0000
  H   H19       1.0  0.64660  0.91226  0.33780  1.0000
  H   H20       1.0  0.68186  0.91520  0.20333  1.0000
  H   H21       1.0  0.71162  0.96196  0.20655  1.0000
  H   H22       1.0  0.72337  0.88355  0.33702  1.0000
  H   H23       1.0  0.71051  0.80206  0.21448  1.0000
  H   H24       1.0  0.74462  0.78989  0.22143  1.0000
  H   H25       1.0  0.52570  0.65625  0.21775  1.0000
  H   H26       1.0  0.56004  0.70245  0.21084  1.0000
  C   C44       1.0  0.28579  0.75661  0.32540  1.0000
  C   C45       1.0  0.30976  0.78069  0.32285  1.0000
  C   C46       1.0  0.30410  0.80173  0.32822  1.0000
  N   N5        1.0  0.27677  0.78947  0.33004  1.0000
  C   C47       1.0  0.26464  0.76215  0.32806  1.0000
  C   C48       1.0  0.23671  0.74223  0.32929  1.0000
  N   N6        1.0  0.21725  0.77268  0.33080  1.0000
  C   C49       1.0  0.19273  0.77076  0.33195  1.0000
  C   C50       1.0  0.17397  0.74317  0.33431  1.0000
  C   C51       1.0  0.18788  0.72931  0.33167  1.0000
  C   C52       1.0  0.18663  0.79199  0.33161  1.0000
  C   C53       1.0  0.20636  0.81994  0.33246  1.0000
  N   N7        1.0  0.23369  0.83219  0.33119  1.0000
  C   C54       1.0  0.24579  0.85949  0.33413  1.0000
  C   C55       1.0  0.22464  0.86501  0.33856  1.0000
  C   C56       1.0  0.20062  0.84096  0.33485  1.0000
  C   C57       1.0  0.27372  0.87936  0.33367  1.0000
  N   N8        1.0  0.29328  0.84891  0.33094  1.0000
  C   C58       1.0  0.31784  0.85088  0.33115  1.0000
  C   C59       1.0  0.32397  0.82967  0.33066  1.0000
  C   C60       1.0  0.35183  0.83685  0.33422  1.0000
  C   C61       1.0  0.36987  0.85138  0.26439  1.0000
  C   C62       1.0  0.39710  0.85818  0.26851  1.0000
  C   C63       1.0  0.40700  0.84924  0.33957  1.0000
  C   C64       1.0  0.28093  0.90720  0.33775  1.0000
  C   C65       1.0  0.27425  0.91936  0.26788  1.0000
  C   C66       1.0  0.28162  0.94674  0.27202  1.0000
  C   C67       1.0  0.29746  0.96347  0.34311  1.0000
  C   C68       1.0  0.15875  0.78454  0.33028  1.0000
  C   C69       1.0  0.10169  0.76605  0.33140  1.0000
  C   C70       1.0  0.11450  0.76109  0.25846  1.0000
  C   C71       1.0  0.14240  0.77080  0.25645  1.0000
  C   C72       1.0  0.22957  0.71441  0.32772  1.0000
  C   C73       1.0  0.23558  0.70340  0.25308  1.0000
  C   C74       1.0  0.23100  0.67689  0.25508  1.0000
  C   C75       1.0  0.21845  0.65930  0.32867  1.0000
  H   H27       1.0  0.23800  0.67121  0.20173  1.0000
  H   H28       1.0  0.24493  0.71521  0.19866  1.0000
  H   H29       1.0  0.32821  0.78205  0.31893  1.0000
  H   H30       1.0  0.26707  0.79908  0.33468  1.0000
  H   H31       1.0  0.24340  0.82257  0.32771  1.0000
  H   H32       1.0  0.17890  0.70877  0.33119  1.0000
  H   H33       1.0  0.15344  0.73410  0.33688  1.0000
  H   H34       1.0  0.15048  0.76640  0.20251  1.0000
  H   H35       1.0  0.10372  0.74939  0.20592  1.0000
  H   H36       1.0  0.18214  0.83958  0.33588  1.0000
  H   H37       1.0  0.26373  0.90825  0.21365  1.0000
  H   H38       1.0  0.27587  0.95452  0.22078  1.0000
  H   H39       1.0  0.40954  0.86928  0.21742  1.0000
  H   H40       1.0  0.36334  0.85739  0.21025  1.0000
  C   C76       1.0  0.78419  0.54140  0.32927  1.0000
  N   N9        1.0  0.79474  0.59932  0.33198  1.0000
  C   C77       1.0  0.79282  0.62192  0.33307  1.0000
  C   C78       1.0  0.76523  0.61310  0.33526  1.0000
  C   C79       1.0  0.75137  0.58534  0.33259  1.0000
  C   C80       1.0  0.81406  0.64925  0.33279  1.0000
  C   C81       1.0  0.88155  0.65757  0.33521  1.0000
  C   C82       1.0  0.86303  0.68422  0.33617  1.0000
  C   C83       1.0  0.87292  0.57690  0.33194  1.0000
  C   C84       1.0  0.87337  0.52538  0.26501  1.0000
  C   C85       1.0  0.88016  0.50493  0.26899  1.0000
  C   C86       1.0  0.94138  0.68897  0.26850  1.0000
  C   C87       1.0  0.96877  0.70897  0.27242  1.0000
  C   C88       1.0  0.80661  0.66969  0.33134  1.0000
  C   C89       1.0  0.78318  0.69048  0.25938  1.0000
  C   C90       1.0  0.79295  0.67233  0.25737  1.0000
  C   C91       1.0  0.72548  0.51171  0.25417  1.0000
  C   C92       1.0  0.69896  0.48980  0.25610  1.0000
  H   H41       1.0  0.69329  0.47710  0.20282  1.0000
  H   H42       1.0  0.73729  0.51417  0.19975  1.0000
  H   H43       1.0  0.80406  0.49770  0.32032  1.0000
  H   H44       1.0  0.73083  0.57378  0.33187  1.0000
  H   H45       1.0  0.75617  0.62458  0.33766  1.0000
  H   H46       1.0  0.78853  0.65983  0.20353  1.0000
  H   H47       1.0  0.77152  0.68958  0.20675  1.0000
  H   H48       1.0  0.86166  0.70132  0.33727  1.0000
  H   H49       1.0  0.93023  0.68840  0.21441  1.0000
  H   H50       1.0  0.97651  0.72252  0.22116  1.0000
  H   H51       1.0  0.89125  0.50361  0.21782  1.0000
  H   H52       1.0  0.87936  0.53793  0.21089  1.0000
  C   C93       1.0  0.44380  0.17067  0.33329  1.0000
  C   C94       1.0  0.45262  0.15190  0.33538  1.0000
  C   C95       1.0  0.48038  0.16580  0.33268  1.0000
  C   C96       1.0  0.54034  0.34775  0.26546  1.0000
  C   C97       1.0  0.56076  0.37499  0.26944  1.0000
  C   C98       1.0  0.37674  0.25213  0.26889  1.0000
  C   C99       1.0  0.35673  0.25952  0.27276  1.0000
  C   C100      1.0  0.37525  0.09249  0.25932  1.0000
  C   C101      1.0  0.39343  0.12040  0.25752  1.0000
  C   C102      1.0  0.55403  0.21356  0.25441  1.0000
  C   C103      1.0  0.57594  0.20896  0.25627  1.0000
  H   H53       1.0  0.58866  0.21601  0.20300  1.0000
  H   H54       1.0  0.55158  0.22293  0.20005  1.0000
  H   H55       1.0  0.56801  0.30614  0.32085  1.0000
  H   H56       1.0  0.49195  0.15683  0.33210  1.0000
  H   H57       1.0  0.40590  0.12852  0.20359  1.0000
  H   H58       1.0  0.37614  0.08176  0.20657  1.0000
  H   H59       1.0  0.36439  0.16010  0.33779  1.0000
  H   H60       1.0  0.37731  0.24154  0.21483  1.0000
  H   H61       1.0  0.34319  0.25369  0.22155  1.0000
  H   H62       1.0  0.56211  0.38738  0.21820  1.0000
  H   H63       1.0  0.52782  0.34118  0.21131  1.0000
  C   C104      1.0  0.77800  0.26295  0.32344  1.0000
  N   N10       1.0  0.81100  0.25417  0.33076  1.0000
  C   C105      1.0  0.82313  0.28149  0.32876  1.0000
  N   N11       1.0  0.87051  0.27096  0.33153  1.0000
  C   C106      1.0  0.89503  0.27288  0.33266  1.0000
  C   C107      1.0  0.91379  0.30047  0.33500  1.0000
  C   C108      1.0  0.89989  0.31433  0.33241  1.0000
  C   C109      1.0  0.90113  0.25165  0.33227  1.0000
  N   N12       1.0  0.85408  0.21145  0.33183  1.0000
  C   C110      1.0  0.84197  0.18415  0.33481  1.0000
  C   C111      1.0  0.88714  0.20268  0.33554  1.0000
  C   C112      1.0  0.76992  0.19276  0.33187  1.0000
  C   C113      1.0  0.76380  0.21397  0.33141  1.0000
  C   C114      1.0  0.71793  0.19229  0.26510  1.0000
  C   C115      1.0  0.69070  0.18550  0.26920  1.0000
  C   C116      1.0  0.68077  0.19444  0.34023  1.0000
  C   C117      1.0  0.81355  0.12431  0.26842  1.0000
  C   C118      1.0  0.80614  0.09691  0.27242  1.0000
  C   C119      1.0  0.92902  0.25911  0.33085  1.0000
  C   C120      1.0  0.98608  0.27761  0.33179  1.0000
  C   C121      1.0  0.97327  0.28256  0.25889  1.0000
  C   C122      1.0  0.94536  0.27283  0.25694  1.0000
  C   C123      1.0  0.85820  0.32923  0.32843  1.0000
  C   C124      1.0  0.85221  0.34025  0.25380  1.0000
  C   C125      1.0  0.85685  0.36678  0.25568  1.0000
  H   H64       1.0  0.84988  0.37247  0.20231  1.0000
  H   H65       1.0  0.84295  0.32847  0.19929  1.0000
  H   H66       1.0  0.75956  0.26159  0.31946  1.0000
  H   H67       1.0  0.82069  0.24456  0.33572  1.0000
  H   H68       1.0  0.90886  0.33487  0.33191  1.0000
  H   H69       1.0  0.93433  0.30953  0.33754  1.0000
  H   H70       1.0  0.93729  0.27725  0.20307  1.0000
  H   H71       1.0  0.98405  0.29426  0.20631  1.0000
  H   H72       1.0  0.90561  0.20405  0.33676  1.0000
  H   H73       1.0  0.82413  0.13544  0.21427  1.0000
  H   H74       1.0  0.81195  0.08916  0.22120  1.0000
  H   H75       1.0  0.67828  0.17443  0.21808  1.0000
  H   H76       1.0  0.72448  0.18629  0.21096  1.0000
  C   C126      1.0  0.21644  0.59460  0.25757  1.0000
  C   C127      1.0  0.21653  0.61912  0.25380  1.0000
  H   H77       1.0  0.22026  0.58770  0.19962  1.0000
  H   H78       1.0  0.21882  0.62751  0.19224  1.0000
  C   C128      1.0  0.47110  0.62159  0.25790  1.0000
  C   C129      1.0  0.44661  0.59713  0.25410  1.0000
  H   H79       1.0  0.47806  0.63228  0.19991  1.0000
  H   H80       1.0  0.43826  0.59100  0.19252  1.0000
  C   C130      1.0  0.44418  0.84934  0.25781  1.0000
  C   C131      1.0  0.46862  0.84927  0.25417  1.0000
  H   H81       1.0  0.43351  0.84557  0.19979  1.0000
  H   H82       1.0  0.47478  0.84703  0.19264  1.0000
  C   C132      1.0  0.87135  0.44904  0.25813  1.0000
  C   C133      1.0  0.87132  0.42454  0.25438  1.0000
  H   H83       1.0  0.86761  0.45597  0.20013  1.0000
  H   H84       1.0  0.86910  0.41618  0.19281  1.0000
  C   C134      1.0  0.61667  0.42207  0.25857  1.0000
  C   C135      1.0  0.64119  0.44650  0.25480  1.0000
  H   H85       1.0  0.60978  0.41135  0.20063  1.0000
  H   H86       1.0  0.64958  0.45261  0.19324  1.0000
  C   C136      1.0  0.64363  0.19436  0.25841  1.0000
  C   C137      1.0  0.61917  0.19440  0.25474  1.0000
  H   H87       1.0  0.65430  0.19809  0.20037  1.0000
  H   H88       1.0  0.61302  0.19661  0.19318  1.0000
  C   C138      1.0  0.05953  0.31213  0.26076  1.0000
  C   C139      1.0  0.03128  0.29813  0.25689  1.0000
  H   H89       1.0  0.06974  0.32052  0.20284  1.0000
  H   H90       1.0  0.02291  0.29592  0.19533  1.0000
  C   C140      1.0  0.75359  0.74713  0.26120  1.0000
  C   C141      1.0  0.76762  0.73292  0.25733  1.0000
  H   H91       1.0  0.74525  0.74899  0.20326  1.0000
  H   H92       1.0  0.76988  0.72678  0.19577  1.0000
  C   C142      1.0  0.31859  0.00622  0.26083  1.0000
  C   C143      1.0  0.33284  0.03447  0.25708  1.0000
  C   C144      1.0  0.33951  0.05059  0.33486  1.0000
  H   H93       1.0  0.31682  0.99605  0.20290  1.0000
  H   H94       1.0  0.33904  0.04288  0.19556  1.0000
  C   C145      1.0  0.02824  0.73148  0.26070  1.0000
  C   C146      1.0  0.05649  0.74551  0.25669  1.0000
  C   C147      1.0  0.07266  0.75494  0.33435  1.0000
  H   H95       1.0  0.01803  0.72312  0.20281  1.0000
  H   H96       1.0  0.06487  0.74774  0.19509  1.0000
  C   C148      1.0  0.33421  0.29648  0.26108  1.0000
  C   C149      1.0  0.32021  0.31072  0.25711  1.0000
  H   H97       1.0  0.34263  0.29467  0.20322  1.0000
  H   H98       1.0  0.31803  0.31689  0.19552  1.0000
  C   C150      1.0  0.76919  0.03744  0.26099  1.0000
  C   C151      1.0  0.75497  0.00919  0.25711  1.0000
  H   H99       1.0  0.77105  0.04764  0.20306  1.0000
  H   H100      1.0  0.74883  0.00081  0.19555  1.0000
  C   C152      1.0  0.30911  0.52894  0.32623  1.0000
  C   C153      1.0  0.26398  0.50213  0.32880  1.0000
  C   C154      1.0  0.31752  0.46697  0.33118  1.0000
  C   C155      1.0  0.24575  0.38617  0.33327  1.0000
  C   C156      1.0  0.20068  0.35939  0.33967  1.0000
  C   C157      1.0  0.18634  0.39412  0.33410  1.0000
  C   C158      1.0  0.19234  0.42143  0.33151  1.0000
  N   N13       1.0  0.21680  0.44413  0.33136  1.0000
  C   C159      1.0  0.18725  0.45788  0.33250  1.0000
  C   C160      1.0  0.17348  0.43013  0.32940  1.0000
  C   C161      1.0  0.23182  0.55440  0.40755  1.0000
  C   C162      1.0  0.23685  0.53276  0.40724  1.0000
  C   C163      1.0  0.15850  0.37350  0.33806  1.0000
  C   C164      1.0  0.10222  0.33376  0.34319  1.0000
  C   C165      1.0  0.11442  0.35335  0.41130  1.0000
  C   C166      1.0  0.14221  0.37198  0.41107  1.0000
  C   C167      1.0  0.27610  0.35671  0.40427  1.0000
  C   C168      1.0  0.28434  0.33733  0.40325  1.0000
  C   C169      1.0  0.36827  0.51934  0.40174  1.0000
  C   C170      1.0  0.39533  0.54027  0.40079  1.0000
  H   H101      1.0  0.40662  0.54161  0.45507  1.0000
  H   H102      1.0  0.36106  0.50720  0.45673  1.0000
  H   H103      1.0  0.32752  0.54614  0.32549  1.0000
  H   H104      1.0  0.26610  0.35799  0.45895  1.0000
  H   H105      1.0  0.27903  0.32486  0.45711  1.0000
  H   H106      1.0  0.18229  0.34225  0.34401  1.0000
  H   H107      1.0  0.17811  0.46928  0.33362  1.0000
  H   H108      1.0  0.15295  0.41861  0.32805  1.0000
  H   H109      1.0  0.15019  0.38557  0.46221  1.0000
  H   H110      1.0  0.10309  0.35461  0.46176  1.0000
  H   H111      1.0  0.24775  0.53113  0.45847  1.0000
  H   H112      1.0  0.23994  0.56815  0.45809  1.0000
  C   C171      1.0  0.53675  0.77991  0.32617  1.0000
  C   C172      1.0  0.56357  0.76160  0.32901  1.0000
  N   N14       1.0  0.57864  0.78893  0.33091  1.0000
  C   C173      1.0  0.57145  0.82899  0.33019  1.0000
  C   C174      1.0  0.59871  0.85029  0.33196  1.0000
  C   C175      1.0  0.67951  0.85933  0.33338  1.0000
  N   N15       1.0  0.66444  0.83201  0.33207  1.0000
  C   C176      1.0  0.70630  0.84105  0.33957  1.0000
  C   C177      1.0  0.67158  0.79197  0.33449  1.0000
  C   C178      1.0  0.64427  0.77066  0.33210  1.0000
  N   N16       1.0  0.62156  0.77241  0.33179  1.0000
  C   C179      1.0  0.60782  0.72913  0.33320  1.0000
  C   C180      1.0  0.63556  0.74310  0.33032  1.0000
  C   C181      1.0  0.57164  0.74173  0.33145  1.0000
  C   C182      1.0  0.55096  0.71387  0.33488  1.0000
  C   C183      1.0  0.50814  0.65870  0.33989  1.0000
  C   C184      1.0  0.51122  0.67722  0.40786  1.0000
  C   C185      1.0  0.53290  0.70387  0.40765  1.0000
  C   C186      1.0  0.69220  0.78476  0.33850  1.0000
  C   C187      1.0  0.73192  0.76819  0.34363  1.0000
  C   C188      1.0  0.71234  0.76086  0.41186  1.0000
  C   C189      1.0  0.69371  0.77002  0.41157  1.0000
  C   C190      1.0  0.70899  0.91914  0.40448  1.0000
  C   C191      1.0  0.72836  0.94677  0.40340  1.0000
  C   C192      1.0  0.73030  0.96400  0.33203  1.0000
  C   C193      1.0  0.55078  0.83613  0.32853  1.0000
  C   C194      1.0  0.54626  0.84861  0.40231  1.0000
  C   C195      1.0  0.50680  0.84727  0.32924  1.0000
  C   C196      1.0  0.52534  0.85476  0.40125  1.0000
  H   H113      1.0  0.52395  0.86466  0.45559  1.0000
  H   H114      1.0  0.55835  0.85351  0.45740  1.0000
  H   H115      1.0  0.51955  0.78111  0.32523  1.0000
  H   H116      1.0  0.59794  0.79862  0.33586  1.0000
  H   H117      1.0  0.64511  0.82229  0.32842  1.0000
  H   H118      1.0  0.70773  0.90787  0.45915  1.0000
  H   H119      1.0  0.74086  0.95395  0.45716  1.0000
  H   H120      1.0  0.72344  0.83981  0.34404  1.0000
  H   H121      1.0  0.59641  0.70858  0.33453  1.0000
  H   H122      1.0  0.64708  0.73409  0.32888  1.0000
  H   H123      1.0  0.68015  0.76446  0.46280  1.0000
  H   H124      1.0  0.71108  0.74829  0.46236  1.0000
  H   H125      1.0  0.53445  0.71642  0.45872  1.0000
  H   H126      1.0  0.49743  0.67161  0.45832  1.0000
  C   C197      1.0  0.21541  0.74818  0.33101  1.0000
  C   C198      1.0  0.29503  0.87337  0.33131  1.0000
  C   C199      1.0  0.33656  0.87845  0.33246  1.0000
  C   C200      1.0  0.32259  0.89223  0.32964  1.0000
  C   C201      1.0  0.38844  0.83380  0.40745  1.0000
  C   C202      1.0  0.36178  0.82878  0.40703  1.0000
  C   C203      1.0  0.30478  0.95122  0.41124  1.0000
  C   C204      1.0  0.29558  0.92341  0.41096  1.0000
  C   C205      1.0  0.14656  0.78963  0.40368  1.0000
  C   C206      1.0  0.11892  0.78137  0.40270  1.0000
  C   C207      1.0  0.21705  0.69743  0.40152  1.0000
  C   C208      1.0  0.21092  0.67037  0.40057  1.0000
  H   H127      1.0  0.20097  0.65908  0.45489  1.0000
  H   H128      1.0  0.21213  0.70464  0.45655  1.0000
  H   H129      1.0  0.28459  0.73821  0.32463  1.0000
  H   H130      1.0  0.15783  0.79964  0.45831  1.0000
  H   H131      1.0  0.11175  0.78669  0.45651  1.0000
  H   H132      1.0  0.22587  0.88339  0.34296  1.0000
  H   H133      1.0  0.35711  0.88759  0.33394  1.0000
  H   H134      1.0  0.33161  0.91277  0.32830  1.0000
  H   H135      1.0  0.30118  0.91541  0.46207  1.0000
  H   H136      1.0  0.31732  0.96251  0.46178  1.0000
  H   H137      1.0  0.34920  0.81782  0.45811  1.0000
  H   H138      1.0  0.39402  0.82563  0.45798  1.0000
  C   C209      1.0  0.77864  0.51470  0.32686  1.0000
  C   C210      1.0  0.80272  0.51480  0.32428  1.0000
  C   C211      1.0  0.82376  0.54150  0.32935  1.0000
  N   N17       1.0  0.81151  0.55658  0.33116  1.0000
  C   C212      1.0  0.76428  0.54942  0.33035  1.0000
  C   C213      1.0  0.77024  0.57667  0.33203  1.0000
  C   C214      1.0  0.84201  0.65747  0.33368  1.0000
  N   N18       1.0  0.85425  0.64239  0.33231  1.0000
  C   C215      1.0  0.88708  0.68425  0.33980  1.0000
  C   C216      1.0  0.90142  0.64951  0.33455  1.0000
  C   C217      1.0  0.89542  0.62220  0.33205  1.0000
  N   N19       1.0  0.87096  0.59950  0.33183  1.0000
  C   C218      1.0  0.90049  0.58575  0.33307  1.0000
  C   C219      1.0  0.91427  0.61350  0.33010  1.0000
  C   C220      1.0  0.85171  0.54957  0.33157  1.0000
  C   C221      1.0  0.85889  0.52889  0.33500  1.0000
  C   C222      1.0  0.87126  0.48609  0.34005  1.0000
  C   C223      1.0  0.85586  0.48920  0.40809  1.0000
  C   C224      1.0  0.85086  0.51086  0.40783  1.0000
  C   C225      1.0  0.92926  0.67013  0.33843  1.0000
  C   C226      1.0  0.98554  0.70985  0.34334  1.0000
  C   C227      1.0  0.97332  0.69029  0.41158  1.0000
  C   C228      1.0  0.94553  0.67167  0.41146  1.0000
  C   C229      1.0  0.81167  0.68695  0.40472  1.0000
  C   C230      1.0  0.80342  0.70634  0.40362  1.0000
  C   C231      1.0  0.78813  0.70826  0.33225  1.0000
  C   C232      1.0  0.73646  0.52874  0.32875  1.0000
  C   C233      1.0  0.71945  0.52428  0.40249  1.0000
  C   C234      1.0  0.68134  0.48475  0.32966  1.0000
  C   C235      1.0  0.69239  0.50335  0.40153  1.0000
  H   H139      1.0  0.68108  0.50201  0.45580  1.0000
  H   H140      1.0  0.72664  0.53641  0.45749  1.0000
  H   H141      1.0  0.76023  0.49750  0.32612  1.0000
  H   H142      1.0  0.82114  0.57590  0.33532  1.0000
  H   H143      1.0  0.84463  0.62305  0.32868  1.0000
  H   H144      1.0  0.82166  0.68569  0.45941  1.0000
  H   H145      1.0  0.80872  0.71883  0.45741  1.0000
  H   H146      1.0  0.90547  0.70139  0.34419  1.0000
  H   H147      1.0  0.90963  0.57434  0.33452  1.0000
  H   H148      1.0  0.93481  0.62501  0.32889  1.0000
  H   H149      1.0  0.93753  0.65810  0.46267  1.0000
  H   H150      1.0  0.98464  0.68904  0.46204  1.0000
  H   H151      1.0  0.83992  0.51247  0.45901  1.0000
  H   H152      1.0  0.84772  0.47545  0.45865  1.0000
  C   C236      1.0  0.55101  0.26371  0.32733  1.0000
  C   C237      1.0  0.55091  0.28770  0.32487  1.0000
  C   C238      1.0  0.52421  0.28204  0.32990  1.0000
  N   N20       1.0  0.50913  0.25470  0.33165  1.0000
  C   C239      1.0  0.52431  0.24257  0.32974  1.0000
  C   C240      1.0  0.51630  0.21464  0.33069  1.0000
  C   C241      1.0  0.48904  0.19334  0.33227  1.0000
  N   N21       1.0  0.46640  0.19519  0.33228  1.0000
  C   C242      1.0  0.41646  0.16457  0.33307  1.0000
  C   C243      1.0  0.40824  0.18430  0.33419  1.0000
  N   N22       1.0  0.42332  0.21163  0.33285  1.0000
  C   C244      1.0  0.40813  0.22374  0.33578  1.0000
  C   C245      1.0  0.38146  0.20259  0.34051  1.0000
  C   C246      1.0  0.38150  0.17857  0.33692  1.0000
  C   C247      1.0  0.41619  0.25166  0.33497  1.0000
  C   C248      1.0  0.44350  0.27297  0.33244  1.0000
  N   N23       1.0  0.46620  0.27122  0.33236  1.0000
  C   C249      1.0  0.48880  0.29578  0.33240  1.0000
  C   C250      1.0  0.47995  0.31450  0.33350  1.0000
  C   C251      1.0  0.45220  0.30053  0.33034  1.0000
  C   C252      1.0  0.51613  0.30191  0.33208  1.0000
  C   C253      1.0  0.53680  0.32977  0.33548  1.0000
  C   C254      1.0  0.57958  0.38496  0.34052  1.0000
  C   C255      1.0  0.57646  0.36645  0.40858  1.0000
  C   C256      1.0  0.55482  0.33978  0.40829  1.0000
  C   C257      1.0  0.39556  0.25888  0.33880  1.0000
  C   C258      1.0  0.35582  0.27541  0.34367  1.0000
  C   C259      1.0  0.37538  0.28280  0.41186  1.0000
  C   C260      1.0  0.39401  0.27363  0.41176  1.0000
  C   C261      1.0  0.39603  0.13669  0.33153  1.0000
  C   C262      1.0  0.37874  0.12444  0.40489  1.0000
  C   C263      1.0  0.35936  0.09681  0.40366  1.0000
  C   C264      1.0  0.35745  0.07962  0.33218  1.0000
  C   C265      1.0  0.53698  0.20749  0.32902  1.0000
  C   C266      1.0  0.54142  0.19493  0.40270  1.0000
  C   C267      1.0  0.58097  0.19638  0.32976  1.0000
  C   C268      1.0  0.56235  0.18880  0.40166  1.0000
  H   H153      1.0  0.56370  0.17884  0.45590  1.0000
  H   H154      1.0  0.52928  0.18998  0.45772  1.0000
  H   H155      1.0  0.56821  0.26251  0.32659  1.0000
  H   H156      1.0  0.48981  0.24500  0.33575  1.0000
  H   H157      1.0  0.44265  0.22134  0.32880  1.0000
  H   H158      1.0  0.44115  0.13137  0.33783  1.0000
  H   H159      1.0  0.37998  0.13567  0.45964  1.0000
  H   H160      1.0  0.34685  0.08961  0.45744  1.0000
  H   H161      1.0  0.36432  0.20384  0.34479  1.0000
  H   H162      1.0  0.49135  0.33505  0.33462  1.0000
  H   H163      1.0  0.44068  0.30955  0.32894  1.0000
  H   H164      1.0  0.40757  0.27923  0.46295  1.0000
  H   H165      1.0  0.37660  0.29537  0.46230  1.0000
  H   H166      1.0  0.55319  0.32725  0.45952  1.0000
  H   H167      1.0  0.59020  0.37207  0.45912  1.0000
  C   C269      1.0  0.80198  0.28703  0.32605  1.0000
  C   C270      1.0  0.78367  0.24191  0.32892  1.0000
  C   C271      1.0  0.85106  0.30141  0.33002  1.0000
  C   C272      1.0  0.87236  0.29546  0.33175  1.0000
  C   C273      1.0  0.88140  0.22369  0.33313  1.0000
  C   C274      1.0  0.86312  0.17863  0.33933  1.0000
  C   C275      1.0  0.81404  0.16427  0.33430  1.0000
  C   C276      1.0  0.79273  0.17027  0.33195  1.0000
  N   N24       1.0  0.79448  0.19473  0.33166  1.0000
  C   C277      1.0  0.75120  0.16519  0.33315  1.0000
  C   C278      1.0  0.76517  0.15141  0.33022  1.0000
  C   C279      1.0  0.73594  0.20679  0.33496  1.0000
  C   C280      1.0  0.69931  0.20987  0.40811  1.0000
  C   C281      1.0  0.72596  0.21484  0.40778  1.0000
  C   C282      1.0  0.80683  0.13644  0.33831  1.0000
  C   C283      1.0  0.79025  0.08015  0.34343  1.0000
  C   C284      1.0  0.78293  0.09238  0.41167  1.0000
  C   C285      1.0  0.79209  0.12017  0.41139  1.0000
  C   C286      1.0  0.94120  0.25401  0.40421  1.0000
  C   C287      1.0  0.96884  0.26228  0.40314  1.0000
  C   C288      1.0  0.87068  0.34620  0.40224  1.0000
  C   C289      1.0  0.86934  0.38435  0.32931  1.0000
  C   C290      1.0  0.87682  0.37327  0.40127  1.0000
  H   H168      1.0  0.88672  0.38454  0.45562  1.0000
  H   H169      1.0  0.87556  0.33898  0.45729  1.0000
  H   H170      1.0  0.80318  0.30543  0.32513  1.0000
  H   H171      1.0  0.84436  0.22106  0.32819  1.0000
  H   H172      1.0  0.92993  0.24400  0.45888  1.0000
  H   H173      1.0  0.97600  0.25695  0.45691  1.0000
  H   H174      1.0  0.86188  0.16024  0.34381  1.0000
  H   H175      1.0  0.73065  0.15605  0.33452  1.0000
  H   H176      1.0  0.75615  0.13088  0.32878  1.0000
  H   H177      1.0  0.78653  0.12817  0.46263  1.0000
  H   H178      1.0  0.77035  0.08106  0.46218  1.0000
  H   H179      1.0  0.73853  0.22584  0.45879  1.0000
  H   H180      1.0  0.69372  0.21805  0.45860  1.0000
  C   C291      1.0  0.21478  0.63225  0.33146  1.0000
  C   C292      1.0  0.21000  0.61747  0.41197  1.0000
  C   C293      1.0  0.20752  0.59157  0.41659  1.0000
  C   C294      1.0  0.21259  0.58051  0.33863  1.0000
  H   H181      1.0  0.20843  0.62561  0.47045  1.0000
  N   N25       1.0  0.19970  0.57805  0.49555  1.0000
  H   H182      1.0  0.19546  0.58567  0.54686  1.0000
  H   H183      1.0  0.19421  0.55907  0.49950  1.0000
  C   C295      1.0  0.43343  0.58228  0.33179  1.0000
  C   C296      1.0  0.44815  0.59232  0.41234  1.0000
  C   C297      1.0  0.47404  0.61576  0.41699  1.0000
  C   C298      1.0  0.48512  0.63186  0.33901  1.0000
  H   H184      1.0  0.43996  0.58263  0.47082  1.0000
  N   N26       1.0  0.48750  0.62149  0.49604  1.0000
  H   H185      1.0  0.47992  0.60956  0.54718  1.0000
  H   H186      1.0  0.50652  0.63489  0.49965  1.0000
  C   C299      1.0  0.48343  0.85095  0.33192  1.0000
  C   C300      1.0  0.47334  0.85566  0.41239  1.0000
  C   C301      1.0  0.44991  0.85812  0.41689  1.0000
  C   C302      1.0  0.43386  0.85312  0.33883  1.0000
  H   H187      1.0  0.48300  0.85717  0.47092  1.0000
  N   N27       1.0  0.44413  0.86587  0.49585  1.0000
  H   H188      1.0  0.45594  0.87007  0.54724  1.0000
  H   H189      1.0  0.43063  0.87135  0.49974  1.0000
  C   C303      1.0  0.87301  0.41139  0.33207  1.0000
  C   C304      1.0  0.87770  0.42615  0.41259  1.0000
  C   C305      1.0  0.88015  0.45204  0.41719  1.0000
  C   C306      1.0  0.87511  0.46309  0.33920  1.0000
  H   H190      1.0  0.87921  0.41798  0.47109  1.0000
  N   N28       1.0  0.88790  0.46553  0.49619  1.0000
  H   H191      1.0  0.89226  0.45797  0.54734  1.0000
  H   H192      1.0  0.89351  0.48455  0.49975  1.0000
  C   C307      1.0  0.65430  0.46137  0.33245  1.0000
  C   C308      1.0  0.63951  0.45135  0.41297  1.0000
  C   C309      1.0  0.61361  0.42792  0.41759  1.0000
  C   C310      1.0  0.60258  0.41181  0.33963  1.0000
  H   H193      1.0  0.64765  0.46105  0.47144  1.0000
  N   N29       1.0  0.60009  0.42221  0.49655  1.0000
  H   H194      1.0  0.60769  0.43406  0.54785  1.0000
  H   H195      1.0  0.58111  0.40871  0.50049  1.0000
  C   C311      1.0  0.60435  0.19273  0.33249  1.0000
  C   C312      1.0  0.61442  0.18805  0.41299  1.0000
  C   C313      1.0  0.63785  0.18559  0.41754  1.0000
  C   C314      1.0  0.65393  0.19061  0.33947  1.0000
  H   H196      1.0  0.60474  0.18655  0.47152  1.0000
  N   N30       1.0  0.64361  0.17787  0.49655  1.0000
  H   H197      1.0  0.63169  0.17351  0.54775  1.0000
  H   H198      1.0  0.65701  0.17225  0.50010  1.0000
  C   C315      1.0  0.01511  0.28870  0.33460  1.0000
  C   C316      1.0  0.02932  0.29165  0.41521  1.0000
  C   C317      1.0  0.05778  0.30365  0.41991  1.0000
  C   C318      1.0  0.07349  0.31585  0.34198  1.0000
  H   H199      1.0  0.01896  0.28524  0.47367  1.0000
  N   N31       1.0  0.06883  0.30243  0.49892  1.0000
  H   H200      1.0  0.05756  0.29316  0.55023  1.0000
  H   H201      1.0  0.08757  0.30704  0.50291  1.0000
  C   C319      1.0  0.77701  0.72617  0.33506  1.0000
  C   C320      1.0  0.77403  0.73743  0.41567  1.0000
  C   C321      1.0  0.76202  0.75388  0.42035  1.0000
  C   C322      1.0  0.74982  0.75737  0.34242  1.0000
  H   H202      1.0  0.78042  0.73349  0.47413  1.0000
  N   N32       1.0  0.76320  0.76614  0.49939  1.0000
  H   H203      1.0  0.77260  0.76427  0.55049  1.0000
  H   H204      1.0  0.75874  0.78039  0.50297  1.0000
  C   C323      1.0  0.32818  0.03632  0.41538  1.0000
  C   C324      1.0  0.31172  0.00786  0.41995  1.0000
  C   C325      1.0  0.30829  0.99220  0.34198  1.0000
  H   H205      1.0  0.33206  0.04664  0.47388  1.0000
  N   N33       1.0  0.29938  0.99676  0.49888  1.0000
  H   H206      1.0  0.30133  0.00799  0.55020  1.0000
  H   H207      1.0  0.28525  0.97801  0.50277  1.0000
  C   C326      1.0  0.05844  0.75198  0.41502  1.0000
  C   C327      1.0  0.02998  0.73997  0.41983  1.0000
  C   C328      1.0  0.01427  0.72776  0.34197  1.0000
  H   H208      1.0  0.06880  0.75839  0.47344  1.0000
  N   N34       1.0  0.01893  0.74118  0.49892  1.0000
  H   H209      1.0  0.03021  0.75059  0.54999  1.0000
  H   H210      1.0  0.00022  0.73672  0.50260  1.0000
  C   C329      1.0  0.31073  0.31743  0.33476  1.0000
  C   C330      1.0  0.31365  0.30615  0.41540  1.0000
  C   C331      1.0  0.32565  0.28970  0.42019  1.0000
  C   C332      1.0  0.33790  0.28621  0.34234  1.0000
  H   H211      1.0  0.30720  0.31007  0.47382  1.0000
  N   N35       1.0  0.32440  0.27741  0.49922  1.0000
  H   H212      1.0  0.31510  0.27940  0.55048  1.0000
  H   H213      1.0  0.32902  0.26328  0.50327  1.0000
  C   C333      1.0  0.74822  0.99303  0.33484  1.0000
  C   C334      1.0  0.75948  0.00726  0.41544  1.0000
  C   C335      1.0  0.77593  0.03571  0.42013  1.0000
  C   C336      1.0  0.77942  0.05142  0.34220  1.0000
  H   H214      1.0  0.75552  0.99691  0.47390  1.0000
  N   N36       1.0  0.78818  0.04677  0.49916  1.0000
  H   H215      1.0  0.78631  0.03549  0.55027  1.0000
  H   H216      1.0  0.80244  0.06548  0.50275  1.0000
