data_image0
_chemical_formula_structural       CNC4H2CH3CNC4H2CH3CNC4H2CH3C4HCNHCH3C4HCNHCH3C4HCNHCH3C4HCNHCH3C4HCNHCH3C4HCNHCH3C24H15C24H15C24H15C24H15C24H15C24H15C4HCNHCH3C4HCNHCH3C4HCNHCH3CNC4H2CH3CNC4H2CH3CNC4H2CH3CNC4H2CH3CNC4H2CH3CNC4H2CH3
_chemical_formula_sum              "C252 N18 H180"
_cell_length_a       77.5981
_cell_length_b       77.5981
_cell_length_c       14.9616
_cell_angle_alpha    90
_cell_angle_beta     90
_cell_angle_gamma    120

_space_group_name_H-M_alt    "P 1"
_space_group_IT_number       1

loop_
  _space_group_symop_operation_xyz
  'x, y, z'

loop_
  _atom_site_type_symbol
  _atom_site_label
  _atom_site_symmetry_multiplicity
  _atom_site_fract_x
  _atom_site_fract_y
  _atom_site_fract_z
  _atom_site_occupancy
  C   C1        1.0  0.04329  0.52852  0.27436  1.0000
  N   N1        1.0  0.02317  0.51781  0.27654  1.0000
  C   C2        1.0  0.99072  0.49616  0.33549  1.0000
  C   C3        1.0  0.98037  0.48738  0.25406  1.0000
  C   C4        1.0  0.95926  0.47740  0.25459  1.0000
  C   C5        1.0  0.94830  0.47570  0.33275  1.0000
  H   H1        1.0  0.95160  0.47077  0.19719  1.0000
  H   H2        1.0  0.04989  0.53556  0.21602  1.0000
  C   C6        1.0  0.99058  0.48750  0.16962  1.0000
  H   H3        1.0  0.00087  0.48203  0.18224  1.0000
  H   H4        1.0  0.99879  0.50258  0.14295  1.0000
  H   H5        1.0  0.98025  0.47809  0.11774  1.0000
  C   C7        1.0  0.47469  0.51540  0.27438  1.0000
  N   N2        1.0  0.48540  0.50599  0.27654  1.0000
  C   C8        1.0  0.50708  0.49522  0.33547  1.0000
  C   C9        1.0  0.51589  0.49368  0.25409  1.0000
  C   C10       1.0  0.52587  0.48256  0.25460  1.0000
  C   C11       1.0  0.52752  0.47325  0.33272  1.0000
  H   H6        1.0  0.53253  0.48155  0.19724  1.0000
  H   H7        1.0  0.46763  0.51493  0.21608  1.0000
  C   C12       1.0  0.51582  0.50383  0.16974  1.0000
  H   H8        1.0  0.52129  0.51958  0.18255  1.0000
  H   H9        1.0  0.50075  0.49698  0.14291  1.0000
  H   H10       1.0  0.52526  0.50293  0.11792  1.0000
  C   C13       1.0  0.48781  0.95993  0.27442  1.0000
  N   N3        1.0  0.49721  0.98004  0.27656  1.0000
  C   C14       1.0  0.50797  0.01249  0.33547  1.0000
  C   C15       1.0  0.50950  0.02284  0.25409  1.0000
  C   C16       1.0  0.52062  0.04395  0.25459  1.0000
  C   C17       1.0  0.52993  0.05490  0.33269  1.0000
  H   H11       1.0  0.52162  0.05160  0.19723  1.0000
  H   H12       1.0  0.48828  0.95333  0.21613  1.0000
  C   C18       1.0  0.49933  0.01261  0.16976  1.0000
  H   H13       1.0  0.48359  0.00232  0.18260  1.0000
  H   H14       1.0  0.50619  0.00440  0.14291  1.0000
  H   H15       1.0  0.50023  0.02294  0.11794  1.0000
  C   C19       1.0  0.22572  0.54014  0.33654  1.0000
  C   C20       1.0  0.25981  0.53568  0.33787  1.0000
  C   C21       1.0  0.24442  0.52477  0.27446  1.0000
  C   C22       1.0  0.22756  0.52733  0.27504  1.0000
  H   H16       1.0  0.21643  0.51983  0.22935  1.0000
  C   C23       1.0  0.30686  0.54252  0.25223  1.0000
  N   N4        1.0  0.28826  0.53962  0.26140  1.0000
  H   H17       1.0  0.31269  0.54475  0.18926  1.0000
  C   C24       1.0  0.24529  0.51068  0.20971  1.0000
  H   H18       1.0  0.24852  0.50030  0.24493  1.0000
  H   H19       1.0  0.25688  0.51883  0.16020  1.0000
  H   H20       1.0  0.23129  0.50192  0.17374  1.0000
  C   C25       1.0  0.46306  0.68620  0.33646  1.0000
  C   C26       1.0  0.46752  0.72476  0.33781  1.0000
  C   C27       1.0  0.47844  0.72028  0.27443  1.0000
  C   C28       1.0  0.47588  0.70087  0.27500  1.0000
  H   H21       1.0  0.48339  0.69724  0.22934  1.0000
  C   C29       1.0  0.46070  0.76498  0.25220  1.0000
  N   N5        1.0  0.46359  0.74928  0.26136  1.0000
  H   H22       1.0  0.45847  0.76859  0.18923  1.0000
  C   C30       1.0  0.49254  0.73525  0.20972  1.0000
  H   H23       1.0  0.50292  0.74886  0.24498  1.0000
  H   H24       1.0  0.48440  0.73870  0.16020  1.0000
  H   H25       1.0  0.50130  0.73001  0.17376  1.0000
  C   C31       1.0  0.31701  0.77749  0.33640  1.0000
  C   C32       1.0  0.27844  0.74340  0.33773  1.0000
  C   C33       1.0  0.28292  0.75880  0.27438  1.0000
  C   C34       1.0  0.30234  0.77565  0.27495  1.0000
  H   H26       1.0  0.30597  0.78679  0.22931  1.0000
  C   C35       1.0  0.23822  0.69636  0.25211  1.0000
  N   N6        1.0  0.25393  0.71495  0.26128  1.0000
  H   H27       1.0  0.23462  0.69053  0.18914  1.0000
  C   C36       1.0  0.26796  0.75794  0.20969  1.0000
  H   H28       1.0  0.25435  0.75471  0.24496  1.0000
  H   H29       1.0  0.26450  0.74635  0.16016  1.0000
  H   H30       1.0  0.27320  0.77194  0.17373  1.0000
  C   C37       1.0  0.77684  0.46255  0.33936  1.0000
  C   C38       1.0  0.74273  0.46699  0.33961  1.0000
  C   C39       1.0  0.75831  0.47814  0.27740  1.0000
  C   C40       1.0  0.77519  0.47561  0.27859  1.0000
  H   H31       1.0  0.78648  0.48332  0.23387  1.0000
  C   C41       1.0  0.69574  0.45993  0.25224  1.0000
  N   N7        1.0  0.71436  0.46291  0.26203  1.0000
  H   H32       1.0  0.68993  0.45755  0.18918  1.0000
  C   C42       1.0  0.75761  0.49243  0.21337  1.0000
  H   H33       1.0  0.75434  0.50273  0.24909  1.0000
  H   H34       1.0  0.74610  0.48445  0.16331  1.0000
  H   H35       1.0  0.77167  0.50126  0.17802  1.0000
  C   C43       1.0  0.54065  0.31492  0.33930  1.0000
  C   C44       1.0  0.53622  0.27637  0.33955  1.0000
  C   C45       1.0  0.52507  0.28081  0.27735  1.0000
  C   C46       1.0  0.52760  0.30021  0.27853  1.0000
  H   H36       1.0  0.51988  0.30379  0.23383  1.0000
  C   C47       1.0  0.54329  0.23645  0.25221  1.0000
  N   N8        1.0  0.54031  0.25209  0.26198  1.0000
  H   H37       1.0  0.54568  0.23303  0.18916  1.0000
  C   C48       1.0  0.51078  0.26581  0.21333  1.0000
  H   H38       1.0  0.50048  0.25223  0.24905  1.0000
  H   H39       1.0  0.51877  0.26229  0.16327  1.0000
  H   H40       1.0  0.50195  0.27104  0.17797  1.0000
  C   C49       1.0  0.68828  0.22637  0.33930  1.0000
  C   C50       1.0  0.72683  0.26049  0.33948  1.0000
  C   C51       1.0  0.72239  0.24489  0.27734  1.0000
  C   C52       1.0  0.70299  0.22802  0.27856  1.0000
  H   H41       1.0  0.69942  0.21672  0.23391  1.0000
  C   C53       1.0  0.76677  0.30746  0.25206  1.0000
  N   N9        1.0  0.75112  0.28885  0.26186  1.0000
  H   H42       1.0  0.77020  0.31326  0.18899  1.0000
  C   C54       1.0  0.73740  0.24559  0.21335  1.0000
  H   H43       1.0  0.75097  0.24887  0.24911  1.0000
  H   H44       1.0  0.74092  0.25709  0.16326  1.0000
  H   H45       1.0  0.73216  0.23152  0.17806  1.0000
  C   C55       1.0  0.17327  0.60118  0.32388  1.0000
  C   C56       1.0  0.15227  0.59124  0.33184  1.0000
  C   C57       1.0  0.14049  0.57015  0.33613  1.0000
  C   C58       1.0  0.15055  0.55909  0.33372  1.0000
  C   C59       1.0  0.17144  0.56856  0.32709  1.0000
  C   C60       1.0  0.18254  0.58947  0.32277  1.0000
  C   C61       1.0  0.11911  0.56025  0.34133  1.0000
  C   C62       1.0  0.10806  0.56737  0.29439  1.0000
  C   C63       1.0  0.08712  0.55740  0.29799  1.0000
  C   C64       1.0  0.07607  0.53962  0.34776  1.0000
  C   C65       1.0  0.08716  0.53254  0.39478  1.0000
  C   C66       1.0  0.10810  0.54266  0.39228  1.0000
  C   C67       1.0  0.18526  0.62239  0.31856  1.0000
  C   C68       1.0  0.18246  0.63507  0.37733  1.0000
  C   C69       1.0  0.19594  0.65573  0.37860  1.0000
  C   C70       1.0  0.21274  0.66456  0.32125  1.0000
  C   C71       1.0  0.21498  0.65188  0.26013  1.0000
  C   C72       1.0  0.20148  0.63132  0.25831  1.0000
  C   C73       1.0  0.18176  0.55779  0.32614  1.0000
  C   C74       1.0  0.19178  0.55746  0.24790  1.0000
  C   C75       1.0  0.20539  0.55051  0.25061  1.0000
  C   C76       1.0  0.20975  0.54422  0.33204  1.0000
  C   C77       1.0  0.19938  0.54423  0.40988  1.0000
  C   C78       1.0  0.18545  0.55081  0.40697  1.0000
  H   H46       1.0  0.19353  0.66423  0.42355  1.0000
  H   H47       1.0  0.17117  0.62925  0.42320  1.0000
  H   H48       1.0  0.22708  0.65727  0.21877  1.0000
  H   H49       1.0  0.20405  0.62280  0.21401  1.0000
  H   H50       1.0  0.18996  0.56318  0.18925  1.0000
  H   H51       1.0  0.21316  0.55148  0.19372  1.0000
  H   H52       1.0  0.17911  0.55177  0.46540  1.0000
  H   H53       1.0  0.20241  0.54009  0.47019  1.0000
  H   H54       1.0  0.11522  0.53694  0.42877  1.0000
  H   H55       1.0  0.08010  0.51955  0.43028  1.0000
  H   H56       1.0  0.08003  0.56346  0.26366  1.0000
  H   H57       1.0  0.11514  0.57978  0.25504  1.0000
  H   H58       1.0  0.14546  0.59962  0.33415  1.0000
  H   H59       1.0  0.19776  0.59629  0.32055  1.0000
  H   H60       1.0  0.14262  0.54386  0.33437  1.0000
  C   C79       1.0  0.40204  0.57272  0.32390  1.0000
  C   C80       1.0  0.41197  0.56166  0.33188  1.0000
  C   C81       1.0  0.43306  0.57097  0.33611  1.0000
  C   C82       1.0  0.44413  0.59209  0.33364  1.0000
  C   C83       1.0  0.43466  0.60352  0.32702  1.0000
  C   C84       1.0  0.41375  0.59370  0.32274  1.0000
  C   C85       1.0  0.44297  0.55950  0.34134  1.0000
  C   C86       1.0  0.43583  0.54131  0.29449  1.0000
  C   C87       1.0  0.44581  0.53035  0.29808  1.0000
  C   C88       1.0  0.46360  0.53709  0.34776  1.0000
  C   C89       1.0  0.47070  0.55527  0.39468  1.0000
  C   C90       1.0  0.46057  0.56608  0.39219  1.0000
  C   C91       1.0  0.38083  0.56351  0.31860  1.0000
  C   C92       1.0  0.36815  0.54804  0.37739  1.0000
  C   C93       1.0  0.34749  0.54087  0.37868  1.0000
  C   C94       1.0  0.33866  0.54883  0.32134  1.0000
  C   C95       1.0  0.35134  0.56374  0.26018  1.0000
  C   C96       1.0  0.37189  0.57079  0.25834  1.0000
  C   C97       1.0  0.44543  0.62460  0.32599  1.0000
  C   C98       1.0  0.44582  0.63496  0.24772  1.0000
  C   C99       1.0  0.45271  0.65552  0.25051  1.0000
  C   C100      1.0  0.45899  0.66617  0.33196  1.0000
  C   C101      1.0  0.45897  0.65578  0.40980  1.0000
  C   C102      1.0  0.45235  0.63526  0.40688  1.0000
  H   H61       1.0  0.33899  0.52996  0.42368  1.0000
  H   H62       1.0  0.37397  0.54257  0.42328  1.0000
  H   H63       1.0  0.34595  0.57046  0.21885  1.0000
  H   H64       1.0  0.38042  0.58188  0.21402  1.0000
  H   H65       1.0  0.44008  0.62743  0.18909  1.0000
  H   H66       1.0  0.45177  0.66233  0.19359  1.0000
  H   H67       1.0  0.45139  0.62796  0.46531  1.0000
  H   H68       1.0  0.46307  0.66293  0.47015  1.0000
  H   H69       1.0  0.46630  0.57894  0.42862  1.0000
  H   H70       1.0  0.48369  0.56122  0.43012  1.0000
  H   H71       1.0  0.43974  0.51719  0.26382  1.0000
  H   H72       1.0  0.42341  0.53597  0.25520  1.0000
  H   H73       1.0  0.40359  0.54648  0.33423  1.0000
  H   H74       1.0  0.40693  0.60211  0.32051  1.0000
  H   H75       1.0  0.45936  0.59939  0.33424  1.0000
  C   C103      1.0  0.43049  0.82995  0.32394  1.0000
  C   C104      1.0  0.44155  0.85094  0.33193  1.0000
  C   C105      1.0  0.43224  0.86273  0.33614  1.0000
  C   C106      1.0  0.41112  0.85267  0.33364  1.0000
  C   C107      1.0  0.39969  0.83178  0.32702  1.0000
  C   C108      1.0  0.40951  0.82068  0.32274  1.0000
  C   C109      1.0  0.44371  0.88410  0.34139  1.0000
  C   C110      1.0  0.46191  0.89516  0.29460  1.0000
  C   C111      1.0  0.47287  0.91610  0.29816  1.0000
  C   C112      1.0  0.46612  0.92714  0.34782  1.0000
  C   C113      1.0  0.44794  0.91605  0.39474  1.0000
  C   C114      1.0  0.43712  0.89512  0.39223  1.0000
  C   C115      1.0  0.43969  0.81794  0.31868  1.0000
  C   C116      1.0  0.45517  0.82074  0.37743  1.0000
  C   C117      1.0  0.46234  0.80726  0.37872  1.0000
  C   C118      1.0  0.45439  0.79047  0.32134  1.0000
  C   C119      1.0  0.43947  0.78823  0.26019  1.0000
  C   C120      1.0  0.43243  0.80174  0.25834  1.0000
  C   C121      1.0  0.37862  0.82147  0.32598  1.0000
  C   C122      1.0  0.36825  0.81150  0.24770  1.0000
  C   C123      1.0  0.34769  0.79787  0.25043  1.0000
  C   C124      1.0  0.33704  0.79346  0.33192  1.0000
  C   C125      1.0  0.34743  0.80381  0.40978  1.0000
  C   C126      1.0  0.36795  0.81770  0.40689  1.0000
  H   H76       1.0  0.47326  0.80967  0.42367  1.0000
  H   H77       1.0  0.46064  0.83204  0.42332  1.0000
  H   H78       1.0  0.43276  0.77613  0.21886  1.0000
  H   H79       1.0  0.42132  0.79917  0.21408  1.0000
  H   H80       1.0  0.37578  0.81330  0.18908  1.0000
  H   H81       1.0  0.34089  0.79009  0.19356  1.0000
  H   H82       1.0  0.37525  0.82407  0.46531  1.0000
  H   H83       1.0  0.34027  0.80075  0.47012  1.0000
  H   H84       1.0  0.42426  0.88799  0.42863  1.0000
  H   H85       1.0  0.44198  0.92311  0.43012  1.0000
  H   H86       1.0  0.48602  0.92319  0.26391  1.0000
  H   H87       1.0  0.46725  0.88808  0.25527  1.0000
  H   H88       1.0  0.45673  0.85774  0.33430  1.0000
  H   H89       1.0  0.40110  0.80545  0.32053  1.0000
  H   H90       1.0  0.40382  0.86060  0.33423  1.0000
  C   C127      1.0  0.83088  0.40286  0.32322  1.0000
  C   C128      1.0  0.85194  0.41315  0.32785  1.0000
  C   C129      1.0  0.86320  0.43424  0.33103  1.0000
  C   C130      1.0  0.85295  0.44506  0.33166  1.0000
  C   C131      1.0  0.83199  0.43517  0.32879  1.0000
  C   C132      1.0  0.82123  0.41423  0.32495  1.0000
  C   C133      1.0  0.88444  0.44447  0.33151  1.0000
  C   C134      1.0  0.89504  0.43980  0.39477  1.0000
  C   C135      1.0  0.91601  0.45025  0.39608  1.0000
  C   C136      1.0  0.92707  0.46536  0.33276  1.0000
  C   C137      1.0  0.91646  0.46983  0.26873  1.0000
  C   C138      1.0  0.89552  0.45970  0.26872  1.0000
  C   C139      1.0  0.81922  0.38165  0.31735  1.0000
  C   C140      1.0  0.82248  0.36910  0.37494  1.0000
  C   C141      1.0  0.80922  0.34839  0.37634  1.0000
  C   C142      1.0  0.79222  0.33939  0.32022  1.0000
  C   C143      1.0  0.78955  0.35195  0.26006  1.0000
  C   C144      1.0  0.80280  0.37256  0.25824  1.0000
  C   C145      1.0  0.82134  0.44558  0.32911  1.0000
  C   C146      1.0  0.81182  0.44652  0.25034  1.0000
  C   C147      1.0  0.79795  0.45315  0.25332  1.0000
  C   C148      1.0  0.79288  0.45856  0.33537  1.0000
  C   C149      1.0  0.80273  0.45790  0.41383  1.0000
  C   C150      1.0  0.81684  0.45154  0.41083  1.0000
  H   H91       1.0  0.81193  0.33996  0.42055  1.0000
  H   H92       1.0  0.83398  0.37504  0.41981  1.0000
  H   H93       1.0  0.77725  0.34644  0.21988  1.0000
  H   H94       1.0  0.79987  0.38101  0.21503  1.0000
  H   H95       1.0  0.81420  0.44150  0.19091  1.0000
  H   H96       1.0  0.79060  0.45269  0.19573  1.0000
  H   H97       1.0  0.82287  0.45017  0.46942  1.0000
  H   H98       1.0  0.79924  0.46143  0.47454  1.0000
  H   H99       1.0  0.88839  0.46337  0.22127  1.0000
  H   H100      1.0  0.92392  0.48078  0.22230  1.0000
  H   H101      1.0  0.92316  0.44643  0.44279  1.0000
  H   H102      1.0  0.88756  0.42900  0.44179  1.0000
  H   H103      1.0  0.85921  0.40520  0.32489  1.0000
  H   H104      1.0  0.80598  0.40713  0.32465  1.0000
  H   H105      1.0  0.86077  0.46029  0.33460  1.0000
  C   C151      1.0  0.60034  0.42864  0.32333  1.0000
  C   C152      1.0  0.59006  0.43942  0.32797  1.0000
  C   C153      1.0  0.56897  0.42961  0.33104  1.0000
  C   C154      1.0  0.55814  0.40852  0.33161  1.0000
  C   C155      1.0  0.56802  0.39745  0.32880  1.0000
  C   C156      1.0  0.58897  0.40762  0.32503  1.0000
  C   C157      1.0  0.55875  0.44062  0.33149  1.0000
  C   C158      1.0  0.56339  0.45586  0.39485  1.0000
  C   C159      1.0  0.55296  0.46639  0.39613  1.0000
  C   C160      1.0  0.53786  0.46236  0.33272  1.0000
  C   C161      1.0  0.53342  0.44731  0.26858  1.0000
  C   C162      1.0  0.54354  0.43648  0.26860  1.0000
  C   C163      1.0  0.62155  0.43818  0.31752  1.0000
  C   C164      1.0  0.63410  0.45400  0.37509  1.0000
  C   C165      1.0  0.65481  0.46145  0.37651  1.0000
  C   C166      1.0  0.66381  0.45344  0.32045  1.0000
  C   C167      1.0  0.65124  0.43818  0.26037  1.0000
  C   C168      1.0  0.63064  0.43085  0.25844  1.0000
  C   C169      1.0  0.55761  0.37639  0.32910  1.0000
  C   C170      1.0  0.55664  0.36593  0.25031  1.0000
  C   C171      1.0  0.55003  0.34543  0.25328  1.0000
  C   C172      1.0  0.54463  0.33495  0.33533  1.0000
  C   C173      1.0  0.54529  0.34546  0.41381  1.0000
  C   C174      1.0  0.55166  0.36592  0.41083  1.0000
  H   H106      1.0  0.66324  0.47260  0.42067  1.0000
  H   H107      1.0  0.62816  0.45956  0.41992  1.0000
  H   H108      1.0  0.65676  0.43142  0.22008  1.0000
  H   H109      1.0  0.62219  0.41947  0.21521  1.0000
  H   H110      1.0  0.56168  0.37334  0.19090  1.0000
  H   H111      1.0  0.55050  0.33855  0.19568  1.0000
  H   H112      1.0  0.55304  0.37333  0.46941  1.0000
  H   H113      1.0  0.54179  0.33844  0.47453  1.0000
  H   H114      1.0  0.53989  0.42571  0.22105  1.0000
  H   H115      1.0  0.52249  0.44384  0.22208  1.0000
  H   H116      1.0  0.55674  0.47733  0.44296  1.0000
  H   H117      1.0  0.57417  0.45916  0.44195  1.0000
  H   H118      1.0  0.59801  0.45464  0.32498  1.0000
  H   H119      1.0  0.59606  0.39946  0.32475  1.0000
  H   H120      1.0  0.54290  0.40112  0.33449  1.0000
  C   C175      1.0  0.57457  0.17233  0.32337  1.0000
  C   C176      1.0  0.56378  0.15127  0.32797  1.0000
  C   C177      1.0  0.57359  0.14000  0.33102  1.0000
  C   C178      1.0  0.59467  0.15024  0.33162  1.0000
  C   C179      1.0  0.60576  0.17119  0.32885  1.0000
  C   C180      1.0  0.59559  0.18197  0.32511  1.0000
  C   C181      1.0  0.56258  0.11876  0.33146  1.0000
  C   C182      1.0  0.54734  0.10816  0.39487  1.0000
  C   C183      1.0  0.53680  0.08720  0.39611  1.0000
  C   C184      1.0  0.54083  0.07613  0.33268  1.0000
  C   C185      1.0  0.55587  0.08674  0.26852  1.0000
  C   C186      1.0  0.56670  0.10768  0.26855  1.0000
  C   C187      1.0  0.56503  0.18401  0.31757  1.0000
  C   C188      1.0  0.54921  0.18074  0.37510  1.0000
  C   C189      1.0  0.54176  0.19400  0.37650  1.0000
  C   C190      1.0  0.54977  0.21101  0.32046  1.0000
  C   C191      1.0  0.56504  0.21371  0.26043  1.0000
  C   C192      1.0  0.57239  0.20045  0.25858  1.0000
  C   C193      1.0  0.62681  0.18183  0.32925  1.0000
  C   C194      1.0  0.63728  0.19132  0.25043  1.0000
  C   C195      1.0  0.65778  0.20519  0.25333  1.0000
  C   C196      1.0  0.66826  0.21032  0.33539  1.0000
  C   C197      1.0  0.65774  0.20048  0.41391  1.0000
  C   C198      1.0  0.63729  0.18638  0.41095  1.0000
  H   H121      1.0  0.53060  0.19128  0.42062  1.0000
  H   H122      1.0  0.54364  0.16923  0.41989  1.0000
  H   H123      1.0  0.57180  0.22599  0.22014  1.0000
  H   H124      1.0  0.58376  0.20337  0.21530  1.0000
  H   H125      1.0  0.62986  0.18893  0.19102  1.0000
  H   H126      1.0  0.66464  0.21255  0.19572  1.0000
  H   H127      1.0  0.62988  0.18036  0.46956  1.0000
  H   H128      1.0  0.66477  0.20401  0.47461  1.0000
  H   H129      1.0  0.57748  0.11481  0.22100  1.0000
  H   H130      1.0  0.55934  0.07927  0.22202  1.0000
  H   H131      1.0  0.52587  0.08005  0.44295  1.0000
  H   H132      1.0  0.54404  0.11565  0.44193  1.0000
  H   H133      1.0  0.54856  0.14401  0.32495  1.0000
  H   H134      1.0  0.60375  0.19722  0.32487  1.0000
  H   H135      1.0  0.60207  0.14240  0.33452  1.0000
  C   C199      1.0  0.05463  0.52901  0.34921  1.0000
  C   C200      1.0  0.01198  0.50679  0.34676  1.0000
  C   C201      1.0  0.02244  0.50681  0.42540  1.0000
  C   C202      1.0  0.04354  0.51804  0.42472  1.0000
  H   H136      1.0  0.05105  0.51840  0.48151  1.0000
  C   C203      1.0  0.95932  0.48468  0.41081  1.0000
  N   N10       1.0  0.97945  0.49437  0.40841  1.0000
  H   H137      1.0  0.95241  0.48432  0.46955  1.0000
  C   C204      1.0  0.01231  0.49493  0.50661  1.0000
  H   H138      1.0  0.00403  0.50109  0.53945  1.0000
  H   H139      1.0  0.02271  0.49488  0.55564  1.0000
  H   H140      1.0  0.00210  0.47948  0.48811  1.0000
  C   C205      1.0  0.47422  0.52626  0.34919  1.0000
  C   C206      1.0  0.49645  0.50585  0.34672  1.0000
  C   C207      1.0  0.49645  0.51631  0.42532  1.0000
  C   C208      1.0  0.48521  0.52617  0.42465  1.0000
  H   H141      1.0  0.48488  0.53334  0.48143  1.0000
  C   C209      1.0  0.51851  0.47525  0.41073  1.0000
  N   N11       1.0  0.50882  0.48570  0.40835  1.0000
  H   H142      1.0  0.51884  0.46868  0.46942  1.0000
  C   C210      1.0  0.50837  0.51809  0.50644  1.0000
  H   H143      1.0  0.50223  0.50366  0.53938  1.0000
  H   H144      1.0  0.50844  0.52856  0.55542  1.0000
  H   H145      1.0  0.52381  0.52332  0.48781  1.0000
  C   C211      1.0  0.47695  0.94859  0.34924  1.0000
  C   C212      1.0  0.49735  0.99124  0.34673  1.0000
  C   C213      1.0  0.48689  0.98078  0.42533  1.0000
  C   C214      1.0  0.47703  0.95967  0.42468  1.0000
  H   H146      1.0  0.46985  0.95217  0.48145  1.0000
  C   C215      1.0  0.52794  0.04389  0.41070  1.0000
  N   N12       1.0  0.51749  0.02376  0.40833  1.0000
  H   H147      1.0  0.53452  0.05080  0.46938  1.0000
  C   C216      1.0  0.48510  0.99092  0.50642  1.0000
  H   H148      1.0  0.49952  0.99920  0.53938  1.0000
  H   H149      1.0  0.47462  0.98052  0.55540  1.0000
  H   H150      1.0  0.47986  0.00112  0.48776  1.0000
  C   C217      1.0  0.24132  0.55022  0.39845  1.0000
  N   N13       1.0  0.25746  0.54790  0.39548  1.0000
  C   C218      1.0  0.27853  0.53643  0.34047  1.0000
  C   C219      1.0  0.28855  0.53615  0.41976  1.0000
  C   C220      1.0  0.30823  0.53958  0.41165  1.0000
  C   C221      1.0  0.31804  0.54322  0.32810  1.0000
  H   H151      1.0  0.31589  0.54040  0.46865  1.0000
  H   H152      1.0  0.24131  0.56024  0.44277  1.0000
  C   C222      1.0  0.27902  0.53209  0.50945  1.0000
  H   H153      1.0  0.26446  0.51859  0.50705  1.0000
  H   H154      1.0  0.27718  0.54453  0.53049  1.0000
  H   H155      1.0  0.28781  0.52993  0.56059  1.0000
  C   C223      1.0  0.45298  0.69173  0.39835  1.0000
  N   N14       1.0  0.45530  0.71020  0.39539  1.0000
  C   C224      1.0  0.46678  0.74273  0.34043  1.0000
  C   C225      1.0  0.46705  0.75303  0.41972  1.0000
  C   C226      1.0  0.46363  0.76928  0.41163  1.0000
  C   C227      1.0  0.46000  0.77546  0.32809  1.0000
  H   H156      1.0  0.46281  0.77612  0.46863  1.0000
  H   H157      1.0  0.44295  0.68170  0.44264  1.0000
  C   C228      1.0  0.47111  0.74755  0.50942  1.0000
  H   H158      1.0  0.48461  0.74649  0.50702  1.0000
  H   H159      1.0  0.45867  0.73327  0.53043  1.0000
  H   H160      1.0  0.47326  0.75850  0.56056  1.0000
  C   C229      1.0  0.31148  0.76188  0.39825  1.0000
  N   N15       1.0  0.29302  0.74574  0.39529  1.0000
  C   C230      1.0  0.26048  0.72469  0.34034  1.0000
  C   C231      1.0  0.25018  0.71466  0.41963  1.0000
  C   C232      1.0  0.23393  0.69499  0.41153  1.0000
  C   C233      1.0  0.22773  0.68518  0.32797  1.0000
  H   H161      1.0  0.22709  0.68733  0.46853  1.0000
  H   H162      1.0  0.32151  0.76188  0.44253  1.0000
  C   C234      1.0  0.25566  0.72420  0.50933  1.0000
  H   H163      1.0  0.25672  0.73875  0.50695  1.0000
  H   H164      1.0  0.26994  0.72603  0.53034  1.0000
  H   H165      1.0  0.24472  0.71541  0.56048  1.0000
  C   C235      1.0  0.76102  0.45223  0.40002  1.0000
  N   N16       1.0  0.74488  0.45456  0.39661  1.0000
  C   C236      1.0  0.72401  0.46623  0.34138  1.0000
  C   C237      1.0  0.71391  0.46657  0.42024  1.0000
  C   C238      1.0  0.69422  0.46308  0.41149  1.0000
  C   C239      1.0  0.68447  0.45929  0.32770  1.0000
  H   H166      1.0  0.68649  0.46230  0.46819  1.0000
  H   H167      1.0  0.76087  0.44204  0.44374  1.0000
  C   C240      1.0  0.72338  0.47074  0.51009  1.0000
  H   H168      1.0  0.73788  0.48431  0.50774  1.0000
  H   H169      1.0  0.72532  0.45839  0.53148  1.0000
  H   H170      1.0  0.71449  0.47284  0.56092  1.0000
  C   C241      1.0  0.55098  0.30942  0.39994  1.0000
  N   N17       1.0  0.54866  0.29096  0.39654  1.0000
  C   C242      1.0  0.53698  0.25842  0.34133  1.0000
  C   C243      1.0  0.53664  0.24797  0.42020  1.0000
  C   C244      1.0  0.54013  0.23178  0.41145  1.0000
  C   C245      1.0  0.54392  0.22582  0.32767  1.0000
  H   H171      1.0  0.54091  0.22482  0.46816  1.0000
  H   H172      1.0  0.56117  0.31948  0.44367  1.0000
  C   C246      1.0  0.53247  0.25327  0.51004  1.0000
  H   H173      1.0  0.51890  0.25421  0.50768  1.0000
  H   H174      1.0  0.54482  0.26757  0.53142  1.0000
  H   H175      1.0  0.53037  0.24229  0.56088  1.0000
  C   C247      1.0  0.69378  0.24221  0.39988  1.0000
  N   N18       1.0  0.71224  0.25834  0.39645  1.0000
  C   C248      1.0  0.74478  0.27920  0.34124  1.0000
  C   C249      1.0  0.75523  0.28931  0.42009  1.0000
  C   C250      1.0  0.77143  0.30900  0.41132  1.0000
  C   C251      1.0  0.77739  0.31873  0.32751  1.0000
  H   H176      1.0  0.77838  0.31673  0.46801  1.0000
  H   H177      1.0  0.68373  0.24235  0.44358  1.0000
  C   C252      1.0  0.74992  0.27985  0.50996  1.0000
  H   H178      1.0  0.74898  0.26535  0.50766  1.0000
  H   H179      1.0  0.73562  0.27792  0.53131  1.0000
  H   H180      1.0  0.76091  0.28874  0.56080  1.0000
