data_image0
_chemical_formula_structural       C5N3HCN3HCN3HC5H3C2O3C5H3C2O3C7H4NHC7H4NHC7H4NHC5N3HCN3HCN3HC5H3C2O3C5H3C2O3C7H4NHC7H4NHC7H4NHC5N3HCN3HCN3HC5H3C2O3C5H3C2O3C7H4NHC7H4NHC7H4NHC5N3HCN3HCN3HC5H3C2O3C5H3C2O3C7H4NHC7H4NHC7H4NH
_chemical_formula_sum              "C168 N48 H96 O24"
_cell_length_a       43.8029
_cell_length_b       43.803
_cell_length_c       15.0682
_cell_angle_alpha    90
_cell_angle_beta     90
_cell_angle_gamma    120

_space_group_name_H-M_alt    "P 1"
_space_group_IT_number       1

loop_
  _space_group_symop_operation_xyz
  'x, y, z'

loop_
  _atom_site_type_symbol
  _atom_site_label
  _atom_site_symmetry_multiplicity
  _atom_site_fract_x
  _atom_site_fract_y
  _atom_site_fract_z
  _atom_site_occupancy
  C   C1        1.0  0.18391  0.31401  0.29363  1.0000
  C   C2        1.0  0.20450  0.29768  0.30730  1.0000
  C   C3        1.0  0.30073  0.17036  0.32860  1.0000
  C   C4        1.0  0.27176  0.17617  0.33446  1.0000
  C   C5        1.0  0.20886  0.24634  0.34254  1.0000
  N   N1        1.0  0.22724  0.20588  0.31031  1.0000
  N   N2        1.0  0.20769  0.21981  0.29357  1.0000
  N   N3        1.0  0.19130  0.26210  0.30894  1.0000
  H   H1        1.0  0.17215  0.24821  0.26768  1.0000
  C   C6        1.0  0.24797  0.46137  0.34242  1.0000
  N   N4        1.0  0.28838  0.02021  0.31018  1.0000
  N   N5        1.0  0.27445  0.48674  0.29337  1.0000
  N   N6        1.0  0.23227  0.42805  0.30890  1.0000
  H   H2        1.0  0.24599  0.42277  0.26712  1.0000
  C   C7        1.0  0.03294  0.28546  0.34206  1.0000
  N   N7        1.0  0.47409  0.26702  0.30989  1.0000
  N   N8        1.0  0.00756  0.28657  0.29305  1.0000
  N   N9        1.0  0.06626  0.30309  0.30856  1.0000
  H   H3        1.0  0.07154  0.32210  0.26680  1.0000
  C   C8        1.0  0.18032  0.36878  0.29363  1.0000
  C   C9        1.0  0.14312  0.34768  0.29259  1.0000
  C   C10       1.0  0.12553  0.31042  0.29341  1.0000
  C   C11       1.0  0.14664  0.29433  0.29262  1.0000
  C   C12       1.0  0.20001  0.35121  0.29268  1.0000
  H   H4        1.0  0.13447  0.26755  0.29798  1.0000
  H   H5        1.0  0.22678  0.36582  0.29836  1.0000
  H   H6        1.0  0.12851  0.35986  0.29792  1.0000
  C   C13       1.0  0.19667  0.40572  0.30718  1.0000
  C   C14       1.0  0.08859  0.28982  0.30682  1.0000
  O   O1        1.0  0.23977  0.31866  0.32027  1.0000
  O   O2        1.0  0.17570  0.42001  0.32018  1.0000
  O   O3        1.0  0.07430  0.25456  0.31975  1.0000
  C   C15       1.0  0.32393  0.12921  0.32860  1.0000
  C   C16       1.0  0.35848  0.15847  0.32674  1.0000
  C   C17       1.0  0.36508  0.19356  0.32850  1.0000
  C   C18       1.0  0.33582  0.19886  0.32677  1.0000
  C   C19       1.0  0.29544  0.13581  0.32685  1.0000
  H   H7        1.0  0.34022  0.22410  0.32618  1.0000
  H   H8        1.0  0.27019  0.11496  0.32633  1.0000
  H   H9        1.0  0.37933  0.15407  0.32617  1.0000
  C   C20       1.0  0.31809  0.09443  0.33442  1.0000
  C   C21       1.0  0.39986  0.22251  0.33425  1.0000
  O   O4        1.0  0.23935  0.14999  0.30968  1.0000
  O   O5        1.0  0.34431  0.08822  0.30980  1.0000
  O   O6        1.0  0.40607  0.25494  0.30965  1.0000
  C   C22       1.0  0.22931  0.25614  0.42179  1.0000
  C   C23       1.0  0.25112  0.24114  0.43950  1.0000
  C   C24       1.0  0.25057  0.21601  0.37855  1.0000
  C   C25       1.0  0.27083  0.25033  0.51965  1.0000
  C   C26       1.0  0.26874  0.27317  0.58154  1.0000
  C   C27       1.0  0.24644  0.28688  0.56543  1.0000
  C   C28       1.0  0.22673  0.27821  0.48672  1.0000
  H   H10       1.0  0.28569  0.23927  0.53702  1.0000
  H   H11       1.0  0.28243  0.27874  0.63992  1.0000
  H   H12       1.0  0.24394  0.30252  0.61189  1.0000
  H   H13       1.0  0.20942  0.28725  0.47949  1.0000
  N   N10       1.0  0.27411  0.20429  0.37947  1.0000
  H   H14       1.0  0.29507  0.21764  0.41534  1.0000
  C   C29       1.0  0.23823  0.47200  0.42179  1.0000
  C   C30       1.0  0.25322  0.00879  0.43956  1.0000
  C   C31       1.0  0.27833  0.03340  0.37859  1.0000
  C   C32       1.0  0.24406  0.01931  0.51979  1.0000
  C   C33       1.0  0.22127  0.99436  0.58171  1.0000
  C   C34       1.0  0.20755  0.45835  0.56553  1.0000
  C   C35       1.0  0.21620  0.44733  0.48676  1.0000
  H   H15       1.0  0.25512  0.04522  0.53716  1.0000
  H   H16       1.0  0.21568  0.00247  0.64008  1.0000
  H   H17       1.0  0.19189  0.44020  0.61195  1.0000
  H   H18       1.0  0.20711  0.42098  0.47939  1.0000
  N   N11       1.0  0.29002  0.06866  0.37952  1.0000
  H   H19       1.0  0.27667  0.07626  0.41544  1.0000
  C   C36       1.0  0.02231  0.26509  0.42146  1.0000
  C   C37       1.0  0.48553  0.24328  0.43926  1.0000
  C   C38       1.0  0.46091  0.24378  0.37831  1.0000
  C   C39       1.0  0.47502  0.22365  0.51953  1.0000
  C   C40       1.0  0.49998  0.22582  0.58145  1.0000
  C   C41       1.0  0.03599  0.24809  0.56521  1.0000
  C   C42       1.0  0.04700  0.26773  0.48638  1.0000
  H   H20       1.0  0.44912  0.20877  0.53690  1.0000
  H   H21       1.0  0.49189  0.21212  0.63982  1.0000
  H   H22       1.0  0.05415  0.25060  0.61162  1.0000
  H   H23       1.0  0.07334  0.28502  0.47903  1.0000
  N   N12       1.0  0.42565  0.22021  0.37928  1.0000
  H   H24       1.0  0.41806  0.19926  0.41520  1.0000
  C   C43       1.0  0.18391  0.81401  0.29363  1.0000
  C   C44       1.0  0.20450  0.79768  0.30730  1.0000
  C   C45       1.0  0.30073  0.67036  0.32860  1.0000
  C   C46       1.0  0.27176  0.67617  0.33446  1.0000
  C   C47       1.0  0.20886  0.74634  0.34254  1.0000
  N   N13       1.0  0.22724  0.70588  0.31031  1.0000
  N   N14       1.0  0.20769  0.71981  0.29357  1.0000
  N   N15       1.0  0.19130  0.76210  0.30894  1.0000
  H   H25       1.0  0.17215  0.74821  0.26768  1.0000
  C   C48       1.0  0.24797  0.96137  0.34242  1.0000
  N   N16       1.0  0.28838  0.52021  0.31018  1.0000
  N   N17       1.0  0.27445  0.98674  0.29337  1.0000
  N   N18       1.0  0.23227  0.92805  0.30890  1.0000
  H   H26       1.0  0.24599  0.92277  0.26712  1.0000
  C   C49       1.0  0.03294  0.78546  0.34206  1.0000
  N   N19       1.0  0.47409  0.76702  0.30989  1.0000
  N   N20       1.0  0.00756  0.78657  0.29305  1.0000
  N   N21       1.0  0.06626  0.80310  0.30856  1.0000
  H   H27       1.0  0.07154  0.82210  0.26680  1.0000
  C   C50       1.0  0.18032  0.86878  0.29363  1.0000
  C   C51       1.0  0.14312  0.84768  0.29259  1.0000
  C   C52       1.0  0.12553  0.81042  0.29341  1.0000
  C   C53       1.0  0.14665  0.79433  0.29262  1.0000
  C   C54       1.0  0.20001  0.85121  0.29268  1.0000
  H   H28       1.0  0.13447  0.76755  0.29798  1.0000
  H   H29       1.0  0.22678  0.86581  0.29836  1.0000
  H   H30       1.0  0.12851  0.85986  0.29792  1.0000
  C   C55       1.0  0.19667  0.90572  0.30718  1.0000
  C   C56       1.0  0.08859  0.78982  0.30682  1.0000
  O   O7        1.0  0.23977  0.81866  0.32027  1.0000
  O   O8        1.0  0.17570  0.92001  0.32018  1.0000
  O   O9        1.0  0.07430  0.75456  0.31975  1.0000
  C   C57       1.0  0.32393  0.62921  0.32860  1.0000
  C   C58       1.0  0.35848  0.65847  0.32674  1.0000
  C   C59       1.0  0.36508  0.69356  0.32850  1.0000
  C   C60       1.0  0.33582  0.69885  0.32677  1.0000
  C   C61       1.0  0.29544  0.63581  0.32685  1.0000
  H   H31       1.0  0.34022  0.72410  0.32618  1.0000
  H   H32       1.0  0.27019  0.61496  0.32633  1.0000
  H   H33       1.0  0.37933  0.65407  0.32617  1.0000
  C   C62       1.0  0.31809  0.59443  0.33442  1.0000
  C   C63       1.0  0.39986  0.72251  0.33425  1.0000
  O   O10       1.0  0.23935  0.64999  0.30968  1.0000
  O   O11       1.0  0.34431  0.58822  0.30980  1.0000
  O   O12       1.0  0.40607  0.75493  0.30965  1.0000
  C   C64       1.0  0.22932  0.75614  0.42179  1.0000
  C   C65       1.0  0.25112  0.74114  0.43950  1.0000
  C   C66       1.0  0.25057  0.71600  0.37855  1.0000
  C   C67       1.0  0.27083  0.75033  0.51965  1.0000
  C   C68       1.0  0.26874  0.77317  0.58154  1.0000
  C   C69       1.0  0.24644  0.78688  0.56543  1.0000
  C   C70       1.0  0.22673  0.77821  0.48672  1.0000
  H   H34       1.0  0.28569  0.73927  0.53702  1.0000
  H   H35       1.0  0.28243  0.77874  0.63992  1.0000
  H   H36       1.0  0.24395  0.80252  0.61189  1.0000
  H   H37       1.0  0.20942  0.78725  0.47949  1.0000
  N   N22       1.0  0.27411  0.70429  0.37947  1.0000
  H   H38       1.0  0.29507  0.71764  0.41534  1.0000
  C   C71       1.0  0.23823  0.97200  0.42179  1.0000
  C   C72       1.0  0.25322  0.50879  0.43956  1.0000
  C   C73       1.0  0.27833  0.53340  0.37859  1.0000
  C   C74       1.0  0.24407  0.51931  0.51979  1.0000
  C   C75       1.0  0.22127  0.49436  0.58171  1.0000
  C   C76       1.0  0.20755  0.95835  0.56553  1.0000
  C   C77       1.0  0.21620  0.94733  0.48676  1.0000
  H   H39       1.0  0.25512  0.54522  0.53716  1.0000
  H   H40       1.0  0.21568  0.50247  0.64008  1.0000
  H   H41       1.0  0.19189  0.94020  0.61195  1.0000
  H   H42       1.0  0.20711  0.92098  0.47939  1.0000
  N   N23       1.0  0.29002  0.56866  0.37952  1.0000
  H   H43       1.0  0.27667  0.57626  0.41544  1.0000
  C   C78       1.0  0.02231  0.76509  0.42146  1.0000
  C   C79       1.0  0.48553  0.74328  0.43926  1.0000
  C   C80       1.0  0.46091  0.74378  0.37831  1.0000
  C   C81       1.0  0.47503  0.72365  0.51953  1.0000
  C   C82       1.0  0.49998  0.72582  0.58145  1.0000
  C   C83       1.0  0.03599  0.74809  0.56521  1.0000
  C   C84       1.0  0.04700  0.76773  0.48638  1.0000
  H   H44       1.0  0.44912  0.70877  0.53690  1.0000
  H   H45       1.0  0.49189  0.71212  0.63982  1.0000
  H   H46       1.0  0.05414  0.75060  0.61162  1.0000
  H   H47       1.0  0.07334  0.78502  0.47903  1.0000
  N   N24       1.0  0.42565  0.72021  0.37928  1.0000
  H   H48       1.0  0.41806  0.69926  0.41520  1.0000
  C   C85       1.0  0.68391  0.31401  0.29363  1.0000
  C   C86       1.0  0.70450  0.29768  0.30730  1.0000
  C   C87       1.0  0.80073  0.17036  0.32860  1.0000
  C   C88       1.0  0.77176  0.17617  0.33446  1.0000
  C   C89       1.0  0.70886  0.24634  0.34254  1.0000
  N   N25       1.0  0.72724  0.20588  0.31031  1.0000
  N   N26       1.0  0.70769  0.21981  0.29357  1.0000
  N   N27       1.0  0.69130  0.26210  0.30894  1.0000
  H   H49       1.0  0.67215  0.24821  0.26768  1.0000
  C   C90       1.0  0.74797  0.46137  0.34242  1.0000
  N   N28       1.0  0.78838  0.02021  0.31018  1.0000
  N   N29       1.0  0.77445  0.48674  0.29337  1.0000
  N   N30       1.0  0.73227  0.42805  0.30890  1.0000
  H   H50       1.0  0.74599  0.42277  0.26712  1.0000
  C   C91       1.0  0.53294  0.28546  0.34206  1.0000
  N   N31       1.0  0.97409  0.26702  0.30989  1.0000
  N   N32       1.0  0.50756  0.28657  0.29305  1.0000
  N   N33       1.0  0.56626  0.30309  0.30856  1.0000
  H   H51       1.0  0.57154  0.32210  0.26680  1.0000
  C   C92       1.0  0.68032  0.36878  0.29363  1.0000
  C   C93       1.0  0.64312  0.34768  0.29259  1.0000
  C   C94       1.0  0.62553  0.31042  0.29341  1.0000
  C   C95       1.0  0.64665  0.29433  0.29262  1.0000
  C   C96       1.0  0.70000  0.35121  0.29268  1.0000
  H   H52       1.0  0.63447  0.26755  0.29798  1.0000
  H   H53       1.0  0.72678  0.36582  0.29836  1.0000
  H   H54       1.0  0.62851  0.35986  0.29792  1.0000
  C   C97       1.0  0.69667  0.40572  0.30718  1.0000
  C   C98       1.0  0.58859  0.28982  0.30682  1.0000
  O   O13       1.0  0.73977  0.31866  0.32027  1.0000
  O   O14       1.0  0.67570  0.42001  0.32018  1.0000
  O   O15       1.0  0.57430  0.25456  0.31975  1.0000
  C   C99       1.0  0.82393  0.12921  0.32860  1.0000
  C   C100      1.0  0.85848  0.15847  0.32674  1.0000
  C   C101      1.0  0.86508  0.19356  0.32850  1.0000
  C   C102      1.0  0.83582  0.19886  0.32677  1.0000
  C   C103      1.0  0.79544  0.13581  0.32685  1.0000
  H   H55       1.0  0.84022  0.22410  0.32618  1.0000
  H   H56       1.0  0.77019  0.11496  0.32633  1.0000
  H   H57       1.0  0.87933  0.15407  0.32617  1.0000
  C   C104      1.0  0.81809  0.09443  0.33442  1.0000
  C   C105      1.0  0.89986  0.22251  0.33425  1.0000
  O   O16       1.0  0.73935  0.14999  0.30968  1.0000
  O   O17       1.0  0.84431  0.08822  0.30980  1.0000
  O   O18       1.0  0.90607  0.25494  0.30965  1.0000
  C   C106      1.0  0.72931  0.25614  0.42179  1.0000
  C   C107      1.0  0.75112  0.24114  0.43950  1.0000
  C   C108      1.0  0.75057  0.21601  0.37855  1.0000
  C   C109      1.0  0.77083  0.25033  0.51965  1.0000
  C   C110      1.0  0.76874  0.27317  0.58154  1.0000
  C   C111      1.0  0.74644  0.28688  0.56543  1.0000
  C   C112      1.0  0.72673  0.27821  0.48672  1.0000
  H   H58       1.0  0.78569  0.23927  0.53702  1.0000
  H   H59       1.0  0.78243  0.27874  0.63992  1.0000
  H   H60       1.0  0.74394  0.30252  0.61189  1.0000
  H   H61       1.0  0.70942  0.28725  0.47949  1.0000
  N   N34       1.0  0.77411  0.20429  0.37947  1.0000
  H   H62       1.0  0.79507  0.21764  0.41534  1.0000
  C   C113      1.0  0.73823  0.47200  0.42179  1.0000
  C   C114      1.0  0.75322  0.00879  0.43956  1.0000
  C   C115      1.0  0.77833  0.03340  0.37859  1.0000
  C   C116      1.0  0.74406  0.01931  0.51979  1.0000
  C   C117      1.0  0.72127  0.99436  0.58171  1.0000
  C   C118      1.0  0.70755  0.45835  0.56553  1.0000
  C   C119      1.0  0.71620  0.44733  0.48676  1.0000
  H   H63       1.0  0.75512  0.04522  0.53716  1.0000
  H   H64       1.0  0.71568  0.00247  0.64008  1.0000
  H   H65       1.0  0.69189  0.44020  0.61195  1.0000
  H   H66       1.0  0.70711  0.42098  0.47939  1.0000
  N   N35       1.0  0.79002  0.06866  0.37952  1.0000
  H   H67       1.0  0.77667  0.07626  0.41544  1.0000
  C   C120      1.0  0.52231  0.26509  0.42146  1.0000
  C   C121      1.0  0.98553  0.24328  0.43926  1.0000
  C   C122      1.0  0.96091  0.24378  0.37831  1.0000
  C   C123      1.0  0.97503  0.22365  0.51953  1.0000
  C   C124      1.0  0.99998  0.22582  0.58145  1.0000
  C   C125      1.0  0.53599  0.24809  0.56521  1.0000
  C   C126      1.0  0.54700  0.26773  0.48638  1.0000
  H   H68       1.0  0.94912  0.20877  0.53690  1.0000
  H   H69       1.0  0.99189  0.21212  0.63982  1.0000
  H   H70       1.0  0.55415  0.25060  0.61162  1.0000
  H   H71       1.0  0.57334  0.28502  0.47903  1.0000
  N   N36       1.0  0.92565  0.22021  0.37928  1.0000
  H   H72       1.0  0.91806  0.19926  0.41520  1.0000
  C   C127      1.0  0.68390  0.81401  0.29363  1.0000
  C   C128      1.0  0.70450  0.79768  0.30730  1.0000
  C   C129      1.0  0.80073  0.67036  0.32860  1.0000
  C   C130      1.0  0.77176  0.67617  0.33446  1.0000
  C   C131      1.0  0.70886  0.74634  0.34254  1.0000
  N   N37       1.0  0.72724  0.70588  0.31031  1.0000
  N   N38       1.0  0.70769  0.71981  0.29357  1.0000
  N   N39       1.0  0.69130  0.76210  0.30894  1.0000
  H   H73       1.0  0.67215  0.74821  0.26768  1.0000
  C   C132      1.0  0.74797  0.96137  0.34242  1.0000
  N   N40       1.0  0.78838  0.52021  0.31018  1.0000
  N   N41       1.0  0.77445  0.98674  0.29337  1.0000
  N   N42       1.0  0.73227  0.92805  0.30890  1.0000
  H   H74       1.0  0.74599  0.92277  0.26712  1.0000
  C   C133      1.0  0.53294  0.78546  0.34206  1.0000
  N   N43       1.0  0.97409  0.76702  0.30989  1.0000
  N   N44       1.0  0.50756  0.78657  0.29305  1.0000
  N   N45       1.0  0.56626  0.80310  0.30856  1.0000
  H   H75       1.0  0.57154  0.82210  0.26680  1.0000
  C   C134      1.0  0.68031  0.86878  0.29363  1.0000
  C   C135      1.0  0.64312  0.84768  0.29259  1.0000
  C   C136      1.0  0.62554  0.81042  0.29341  1.0000
  C   C137      1.0  0.64665  0.79433  0.29262  1.0000
  C   C138      1.0  0.70000  0.85121  0.29268  1.0000
  H   H76       1.0  0.63447  0.76755  0.29798  1.0000
  H   H77       1.0  0.72678  0.86581  0.29836  1.0000
  H   H78       1.0  0.62851  0.85986  0.29792  1.0000
  C   C139      1.0  0.69667  0.90572  0.30718  1.0000
  C   C140      1.0  0.58859  0.78982  0.30682  1.0000
  O   O19       1.0  0.73977  0.81866  0.32027  1.0000
  O   O20       1.0  0.67570  0.92001  0.32018  1.0000
  O   O21       1.0  0.57430  0.75456  0.31975  1.0000
  C   C141      1.0  0.82393  0.62921  0.32860  1.0000
  C   C142      1.0  0.85848  0.65847  0.32674  1.0000
  C   C143      1.0  0.86508  0.69356  0.32850  1.0000
  C   C144      1.0  0.83582  0.69885  0.32677  1.0000
  C   C145      1.0  0.79544  0.63581  0.32685  1.0000
  H   H79       1.0  0.84022  0.72410  0.32618  1.0000
  H   H80       1.0  0.77019  0.61496  0.32633  1.0000
  H   H81       1.0  0.87933  0.65407  0.32617  1.0000
  C   C146      1.0  0.81809  0.59443  0.33442  1.0000
  C   C147      1.0  0.89986  0.72251  0.33425  1.0000
  O   O22       1.0  0.73935  0.64999  0.30968  1.0000
  O   O23       1.0  0.84431  0.58822  0.30980  1.0000
  O   O24       1.0  0.90607  0.75493  0.30965  1.0000
  C   C148      1.0  0.72932  0.75614  0.42179  1.0000
  C   C149      1.0  0.75112  0.74114  0.43950  1.0000
  C   C150      1.0  0.75057  0.71600  0.37855  1.0000
  C   C151      1.0  0.77083  0.75033  0.51965  1.0000
  C   C152      1.0  0.76874  0.77317  0.58154  1.0000
  C   C153      1.0  0.74644  0.78688  0.56543  1.0000
  C   C154      1.0  0.72673  0.77821  0.48672  1.0000
  H   H82       1.0  0.78569  0.73927  0.53702  1.0000
  H   H83       1.0  0.78243  0.77874  0.63992  1.0000
  H   H84       1.0  0.74395  0.80252  0.61189  1.0000
  H   H85       1.0  0.70942  0.78725  0.47949  1.0000
  N   N46       1.0  0.77411  0.70429  0.37947  1.0000
  H   H86       1.0  0.79507  0.71764  0.41534  1.0000
  C   C155      1.0  0.73823  0.97200  0.42179  1.0000
  C   C156      1.0  0.75322  0.50879  0.43956  1.0000
  C   C157      1.0  0.77833  0.53340  0.37859  1.0000
  C   C158      1.0  0.74407  0.51931  0.51979  1.0000
  C   C159      1.0  0.72127  0.49436  0.58171  1.0000
  C   C160      1.0  0.70755  0.95835  0.56553  1.0000
  C   C161      1.0  0.71620  0.94733  0.48676  1.0000
  H   H87       1.0  0.75512  0.54522  0.53716  1.0000
  H   H88       1.0  0.71568  0.50247  0.64008  1.0000
  H   H89       1.0  0.69189  0.94020  0.61195  1.0000
  H   H90       1.0  0.70711  0.92098  0.47939  1.0000
  N   N47       1.0  0.79002  0.56866  0.37952  1.0000
  H   H91       1.0  0.77667  0.57626  0.41544  1.0000
  C   C162      1.0  0.52231  0.76509  0.42146  1.0000
  C   C163      1.0  0.98553  0.74328  0.43926  1.0000
  C   C164      1.0  0.96091  0.74378  0.37831  1.0000
  C   C165      1.0  0.97502  0.72365  0.51953  1.0000
  C   C166      1.0  0.99998  0.72582  0.58145  1.0000
  C   C167      1.0  0.53599  0.74809  0.56521  1.0000
  C   C168      1.0  0.54700  0.76773  0.48638  1.0000
  H   H92       1.0  0.94912  0.70877  0.53690  1.0000
  H   H93       1.0  0.99189  0.71212  0.63982  1.0000
  H   H94       1.0  0.55415  0.75060  0.61162  1.0000
  H   H95       1.0  0.57334  0.78502  0.47903  1.0000
  N   N48       1.0  0.92565  0.72021  0.37928  1.0000
  H   H96       1.0  0.91807  0.69926  0.41520  1.0000
