data_image0
_chemical_formula_structural       H2C3NC3NC5NC4NC35H23C21H18C16H16C3H2C2H2C4H2C3H2C2H2C4H2C18H17C3NC3NC2NC5NC34H24C3NC3NC5NC5NC36H26C3HOHC4HOHC2HOHC3HOHC4HOHC2HOH
_chemical_formula_sum              "H150 C240 N12 O6"
_cell_length_a       58.6712
_cell_length_b       58.6713
_cell_length_c       14.9753
_cell_angle_alpha    89.7736
_cell_angle_beta     90.2264
_cell_angle_gamma    120

_space_group_name_H-M_alt    "P 1"
_space_group_IT_number       1

loop_
  _space_group_symop_operation_xyz
  'x, y, z'

loop_
  _atom_site_type_symbol
  _atom_site_label
  _atom_site_symmetry_multiplicity
  _atom_site_fract_x
  _atom_site_fract_y
  _atom_site_fract_z
  _atom_site_occupancy
  H   H1        1.0  0.00835  0.46572  0.32871  1.0000
  H   H2        1.0  0.00863  0.63807  0.32624  1.0000
  C   C1        1.0  0.01975  0.48577  0.32974  1.0000
  C   C2        1.0  0.04692  0.49933  0.32839  1.0000
  C   C3        1.0  0.05558  0.52626  0.33055  1.0000
  N   N1        1.0  0.03340  0.52801  0.33257  1.0000
  C   C4        1.0  0.01118  0.50411  0.33220  1.0000
  C   C5        1.0  0.98440  0.49777  0.33406  1.0000
  C   C6        1.0  0.97574  0.51646  0.33415  1.0000
  N   N2        1.0  0.99064  0.54299  0.33206  1.0000
  C   C7        1.0  0.97579  0.55467  0.33232  1.0000
  C   C8        1.0  0.94963  0.53428  0.33468  1.0000
  C   C9        1.0  0.94960  0.51075  0.33583  1.0000
  C   C10       1.0  0.98450  0.58203  0.33062  1.0000
  C   C11       1.0  0.01131  0.60241  0.33041  1.0000
  N   N3        1.0  0.03348  0.60066  0.33253  1.0000
  C   C12       1.0  0.05570  0.62456  0.33220  1.0000
  C   C13       1.0  0.04713  0.64290  0.32963  1.0000
  C   C14       1.0  0.01996  0.62935  0.32819  1.0000
  C   C15       1.0  0.08248  0.63090  0.33422  1.0000
  N   N4        1.0  0.07624  0.58569  0.33230  1.0000
  C   C16       1.0  0.09110  0.57401  0.33253  1.0000
  C   C17       1.0  0.11726  0.59440  0.33480  1.0000
  C   C18       1.0  0.11729  0.61793  0.33599  1.0000
  C   C19       1.0  0.08239  0.54665  0.33080  1.0000
  C   C20       1.0  0.10211  0.53926  0.32879  1.0000
  C   C21       1.0  0.11380  0.53878  0.24714  1.0000
  C   C22       1.0  0.13449  0.53319  0.24572  1.0000
  C   C23       1.0  0.14401  0.52786  0.32558  1.0000
  C   C24       1.0  0.16609  0.52381  0.32469  1.0000
  C   C25       1.0  0.21124  0.53771  0.27722  1.0000
  C   C26       1.0  0.18894  0.54075  0.27521  1.0000
  C   C27       1.0  0.10223  0.65800  0.33632  1.0000
  C   C28       1.0  0.11272  0.67216  0.25628  1.0000
  C   C29       1.0  0.13312  0.69858  0.25870  1.0000
  C   C30       1.0  0.14369  0.71152  0.34093  1.0000
  C   C31       1.0  0.16540  0.73786  0.34314  1.0000
  C   C32       1.0  0.16631  0.75772  0.28677  1.0000
  C   C33       1.0  0.18826  0.78336  0.28682  1.0000
  C   C34       1.0  0.21012  0.79011  0.34331  1.0000
  C   C35       1.0  0.96478  0.58944  0.32866  1.0000
  C   C36       1.0  0.92333  0.60152  0.32548  1.0000
  C   C37       1.0  0.93241  0.59584  0.24571  1.0000
  C   C38       1.0  0.95288  0.58993  0.24712  1.0000
  C   C39       1.0  0.90159  0.60608  0.32457  1.0000
  C   C40       1.0  0.87845  0.58937  0.27583  1.0000
  C   C41       1.0  0.85650  0.59298  0.27769  1.0000
  C   C42       1.0  0.85687  0.61347  0.32831  1.0000
  C   C43       1.0  0.96465  0.47067  0.33613  1.0000
  C   C44       1.0  0.95376  0.45674  0.25609  1.0000
  C   C45       1.0  0.93316  0.43041  0.25850  1.0000
  C   C46       1.0  0.92275  0.41735  0.34075  1.0000
  C   C47       1.0  0.90072  0.39119  0.34300  1.0000
  C   C48       1.0  0.85529  0.33939  0.34297  1.0000
  C   C49       1.0  0.87688  0.34587  0.28588  1.0000
  C   C50       1.0  0.89917  0.37128  0.28592  1.0000
  H   H3        1.0  0.87661  0.33205  0.24373  1.0000
  H   H4        1.0  0.91438  0.37507  0.24388  1.0000
  H   H5        1.0  0.92513  0.42120  0.19925  1.0000
  H   H6        1.0  0.96037  0.46584  0.19559  1.0000
  H   H7        1.0  0.05825  0.49061  0.32653  1.0000
  H   H8        1.0  0.03343  0.54436  0.33538  1.0000
  H   H9        1.0  0.03346  0.58430  0.33545  1.0000
  H   H10       1.0  0.93304  0.49259  0.33753  1.0000
  H   H11       1.0  0.93309  0.53592  0.33573  1.0000
  H   H12       1.0  0.95876  0.58559  0.18843  1.0000
  H   H13       1.0  0.92414  0.59591  0.18550  1.0000
  H   H14       1.0  0.05852  0.66296  0.32866  1.0000
  H   H15       1.0  0.13385  0.63609  0.33757  1.0000
  H   H16       1.0  0.10594  0.66319  0.19577  1.0000
  H   H17       1.0  0.14083  0.70799  0.19942  1.0000
  H   H18       1.0  0.18806  0.79714  0.24524  1.0000
  H   H19       1.0  0.15087  0.75374  0.24524  1.0000
  H   H20       1.0  0.18996  0.55616  0.23962  1.0000
  H   H21       1.0  0.22765  0.55095  0.24285  1.0000
  H   H22       1.0  0.14264  0.53317  0.18545  1.0000
  H   H23       1.0  0.10767  0.54297  0.18840  1.0000
  H   H24       1.0  0.87698  0.57375  0.24077  1.0000
  H   H25       1.0  0.83987  0.57991  0.24385  1.0000
  C   C51       1.0  0.54491  0.51993  0.33505  1.0000
  C   C52       1.0  0.56529  0.51416  0.33728  1.0000
  C   C53       1.0  0.58882  0.53766  0.33842  1.0000
  C   C54       1.0  0.56080  0.67401  0.24991  1.0000
  C   C55       1.0  0.56638  0.70029  0.24846  1.0000
  C   C56       1.0  0.56187  0.77246  0.27986  1.0000
  C   C57       1.0  0.55882  0.74712  0.27793  1.0000
  C   C58       1.0  0.42747  0.53949  0.25847  1.0000
  C   C59       1.0  0.40105  0.53347  0.26056  1.0000
  C   C60       1.0  0.34189  0.50745  0.28804  1.0000
  C   C61       1.0  0.31625  0.50376  0.28767  1.0000
  C   C62       1.0  0.30945  0.51880  0.34377  1.0000
  C   C63       1.0  0.50373  0.43556  0.24848  1.0000
  C   C64       1.0  0.50963  0.46194  0.24989  1.0000
  C   C65       1.0  0.51021  0.38802  0.27861  1.0000
  C   C66       1.0  0.50660  0.36246  0.28046  1.0000
  C   C67       1.0  0.64278  0.59603  0.25828  1.0000
  C   C68       1.0  0.66910  0.60173  0.26039  1.0000
  C   C69       1.0  0.76020  0.61473  0.34351  1.0000
  C   C70       1.0  0.75367  0.62998  0.28675  1.0000
  C   C71       1.0  0.72826  0.62686  0.28721  1.0000
  H   H26       1.0  0.76745  0.64363  0.24454  1.0000
  H   H27       1.0  0.72442  0.63838  0.24538  1.0000
  H   H28       1.0  0.67829  0.60310  0.20102  1.0000
  H   H29       1.0  0.63364  0.59369  0.19790  1.0000
  H   H30       1.0  0.60698  0.53925  0.34005  1.0000
  H   H31       1.0  0.51398  0.47228  0.19121  1.0000
  H   H32       1.0  0.50365  0.42734  0.18827  1.0000
  H   H33       1.0  0.46150  0.46939  0.32921  1.0000
  H   H34       1.0  0.43648  0.54176  0.19806  1.0000
  H   H35       1.0  0.39167  0.53183  0.20116  1.0000
  H   H36       1.0  0.30251  0.48984  0.24606  1.0000
  H   H37       1.0  0.34591  0.49604  0.24678  1.0000
  H   H38       1.0  0.54341  0.73280  0.24235  1.0000
  H   H39       1.0  0.54861  0.77568  0.24559  1.0000
  H   H40       1.0  0.56640  0.70857  0.18818  1.0000
  H   H41       1.0  0.55658  0.66379  0.19119  1.0000
  H   H42       1.0  0.52582  0.40224  0.24350  1.0000
  H   H43       1.0  0.51967  0.35897  0.24657  1.0000
  C   C72       1.0  0.42569  0.98587  0.25123  1.0000
  C   C73       1.0  0.39942  0.96518  0.24929  1.0000
  C   C74       1.0  0.32720  0.88840  0.27917  1.0000
  C   C75       1.0  0.35255  0.91070  0.27774  1.0000
  C   C76       1.0  0.56009  0.98694  0.26105  1.0000
  C   C77       1.0  0.56613  0.96655  0.26318  1.0000
  C   C78       1.0  0.59214  0.93335  0.29073  1.0000
  C   C79       1.0  0.59582  0.91140  0.29038  1.0000
  C   C80       1.0  0.66386  0.16705  0.24924  1.0000
  C   C81       1.0  0.63749  0.14658  0.25119  1.0000
  C   C82       1.0  0.71146  0.22104  0.27819  1.0000
  C   C83       1.0  0.73703  0.24299  0.27951  1.0000
  C   C84       1.0  0.50352  0.14571  0.26079  1.0000
  C   C85       1.0  0.49780  0.16631  0.26291  1.0000
  C   C86       1.0  0.46959  0.22260  0.28935  1.0000
  C   C87       1.0  0.47271  0.20031  0.28979  1.0000
  H   H44       1.0  0.45593  0.22281  0.24717  1.0000
  H   H45       1.0  0.46118  0.18504  0.24799  1.0000
  H   H46       1.0  0.49646  0.17427  0.20355  1.0000
  H   H47       1.0  0.50586  0.13903  0.20039  1.0000
  H   H48       1.0  0.62706  0.14063  0.19271  1.0000
  H   H49       1.0  0.67199  0.17524  0.18883  1.0000
  H   H50       1.0  0.55781  0.99379  0.20064  1.0000
  H   H51       1.0  0.56773  0.95890  0.20380  1.0000
  H   H52       1.0  0.60974  0.91166  0.24873  1.0000
  H   H53       1.0  0.60354  0.94885  0.24942  1.0000
  H   H54       1.0  0.36692  0.90972  0.24238  1.0000
  H   H55       1.0  0.32402  0.87203  0.24469  1.0000
  H   H56       1.0  0.39122  0.95711  0.18884  1.0000
  H   H57       1.0  0.43600  0.99206  0.19270  1.0000
  H   H58       1.0  0.69717  0.22247  0.24345  1.0000
  H   H59       1.0  0.74045  0.25959  0.24560  1.0000
  C   C88       1.0  0.28390  0.51620  0.34059  1.0000
  C   C89       1.0  0.27183  0.51558  0.25798  1.0000
  C   C90       1.0  0.24776  0.51537  0.25463  1.0000
  H   H60       1.0  0.23998  0.51545  0.19339  1.0000
  H   H61       1.0  0.28101  0.51642  0.19907  1.0000
  C   C91       1.0  0.58401  0.85523  0.26069  1.0000
  C   C92       1.0  0.58420  0.83137  0.25733  1.0000
  H   H62       1.0  0.58410  0.82362  0.19609  1.0000
  H   H63       1.0  0.58313  0.86367  0.20179  1.0000
  C   C93       1.0  0.23307  0.81566  0.34061  1.0000
  C   C94       1.0  0.24447  0.82784  0.25824  1.0000
  C   C95       1.0  0.26833  0.85191  0.25541  1.0000
  C   C96       1.0  0.28159  0.86482  0.33478  1.0000
  H   H64       1.0  0.27618  0.85975  0.19434  1.0000
  H   H65       1.0  0.23614  0.81871  0.19915  1.0000
  C   C97       1.0  0.78548  0.61671  0.34021  1.0000
  C   C98       1.0  0.79714  0.61683  0.25757  1.0000
  C   C99       1.0  0.82089  0.61643  0.25420  1.0000
  H   H66       1.0  0.82837  0.61601  0.19297  1.0000
  H   H67       1.0  0.78787  0.61609  0.19870  1.0000
  C   C100      1.0  0.48271  0.27927  0.26019  1.0000
  C   C101      1.0  0.48313  0.30344  0.25688  1.0000
  H   H68       1.0  0.48357  0.31149  0.19567  1.0000
  H   H69       1.0  0.48350  0.27090  0.20132  1.0000
  C   C102      1.0  0.83199  0.31411  0.34017  1.0000
  C   C103      1.0  0.82016  0.30235  0.25777  1.0000
  C   C104      1.0  0.79600  0.27859  0.25492  1.0000
  C   C105      1.0  0.78281  0.26560  0.33428  1.0000
  H   H70       1.0  0.78787  0.27104  0.19386  1.0000
  H   H71       1.0  0.82846  0.31155  0.19873  1.0000
  C   C106      1.0  0.09114  0.61222  0.33438  1.0000
  C   C107      1.0  0.13178  0.52789  0.40694  1.0000
  C   C108      1.0  0.11119  0.53363  0.40869  1.0000
  C   C109      1.0  0.16628  0.50348  0.37534  1.0000
  C   C110      1.0  0.18857  0.50037  0.37711  1.0000
  C   C111      1.0  0.21151  0.51757  0.32865  1.0000
  C   C112      1.0  0.13277  0.69718  0.42080  1.0000
  C   C113      1.0  0.11231  0.67080  0.41868  1.0000
  C   C114      1.0  0.20910  0.77027  0.40010  1.0000
  C   C115      1.0  0.18718  0.74468  0.40009  1.0000
  C   C116      1.0  0.95611  0.59536  0.40847  1.0000
  C   C117      1.0  0.93574  0.60142  0.40674  1.0000
  C   C118      1.0  0.88010  0.63044  0.37606  1.0000
  C   C119      1.0  0.90204  0.62676  0.37440  1.0000
  C   C120      1.0  0.95476  0.45773  0.41848  1.0000
  C   C121      1.0  0.93408  0.43144  0.42061  1.0000
  C   C122      1.0  0.87922  0.38463  0.40055  1.0000
  C   C123      1.0  0.85696  0.35925  0.40055  1.0000
  H   H72       1.0  0.84150  0.35574  0.44094  1.0000
  H   H73       1.0  0.87910  0.39858  0.44105  1.0000
  H   H74       1.0  0.92731  0.42270  0.48147  1.0000
  H   H75       1.0  0.96222  0.46748  0.47740  1.0000
  H   H76       1.0  0.96423  0.59481  0.46851  1.0000
  H   H77       1.0  0.92937  0.60479  0.46611  1.0000
  H   H78       1.0  0.13380  0.59276  0.33577  1.0000
  H   H79       1.0  0.10509  0.66089  0.47758  1.0000
  H   H80       1.0  0.13965  0.70583  0.48165  1.0000
  H   H81       1.0  0.18775  0.73078  0.44004  1.0000
  H   H82       1.0  0.22478  0.77401  0.44007  1.0000
  H   H83       1.0  0.10327  0.53423  0.46881  1.0000
  H   H84       1.0  0.13849  0.52480  0.46638  1.0000
  H   H85       1.0  0.18791  0.48538  0.41435  1.0000
  H   H86       1.0  0.15007  0.49061  0.41129  1.0000
  H   H87       1.0  0.91849  0.63949  0.40976  1.0000
  H   H88       1.0  0.88123  0.64567  0.41267  1.0000
  C   C124      1.0  0.61381  0.63280  0.33243  1.0000
  C   C125      1.0  0.60025  0.64642  0.33116  1.0000
  C   C126      1.0  0.57332  0.62814  0.33337  1.0000
  N   N5        1.0  0.57157  0.60421  0.33539  1.0000
  C   C127      1.0  0.59547  0.60589  0.33491  1.0000
  C   C128      1.0  0.60181  0.58545  0.33671  1.0000
  C   C129      1.0  0.58312  0.55810  0.33683  1.0000
  N   N6        1.0  0.55659  0.54647  0.33482  1.0000
  C   C130      1.0  0.51755  0.50129  0.33342  1.0000
  C   C131      1.0  0.49716  0.50772  0.33327  1.0000
  N   N7        1.0  0.49891  0.53164  0.33535  1.0000
  C   C132      1.0  0.47501  0.52996  0.33497  1.0000
  C   C133      1.0  0.45667  0.50305  0.33250  1.0000
  C   C134      1.0  0.47022  0.48944  0.33113  1.0000
  C   C135      1.0  0.46867  0.55040  0.33684  1.0000
  C   C136      1.0  0.48736  0.57775  0.33702  1.0000
  N   N8        1.0  0.51388  0.58937  0.33508  1.0000
  C   C137      1.0  0.52557  0.61591  0.33529  1.0000
  C   C138      1.0  0.50518  0.62168  0.33745  1.0000
  C   C139      1.0  0.48165  0.59818  0.33854  1.0000
  C   C140      1.0  0.55293  0.63456  0.33361  1.0000
  C   C141      1.0  0.56031  0.66168  0.33157  1.0000
  C   C142      1.0  0.57173  0.71500  0.32830  1.0000
  C   C143      1.0  0.57168  0.70257  0.40968  1.0000
  C   C144      1.0  0.56597  0.67624  0.41145  1.0000
  C   C145      1.0  0.57577  0.74112  0.32738  1.0000
  C   C146      1.0  0.59611  0.76154  0.37800  1.0000
  C   C147      1.0  0.59922  0.78694  0.37977  1.0000
  C   C148      1.0  0.58200  0.79276  0.33134  1.0000
  C   C149      1.0  0.44157  0.54304  0.33867  1.0000
  C   C150      1.0  0.38805  0.53097  0.34262  1.0000
  C   C151      1.0  0.40233  0.53428  0.42266  1.0000
  C   C152      1.0  0.42871  0.54020  0.42087  1.0000
  C   C153      1.0  0.36170  0.52632  0.34447  1.0000
  C   C154      1.0  0.32923  0.53752  0.40066  1.0000
  C   C155      1.0  0.35483  0.54121  0.40101  1.0000
  C   C156      1.0  0.51013  0.47417  0.33145  1.0000
  C   C157      1.0  0.50420  0.45941  0.41125  1.0000
  C   C158      1.0  0.49815  0.43298  0.40951  1.0000
  C   C159      1.0  0.49804  0.42064  0.32825  1.0000
  C   C160      1.0  0.49350  0.39434  0.32735  1.0000
  C   C161      1.0  0.48612  0.34223  0.33107  1.0000
  C   C162      1.0  0.46914  0.34838  0.37881  1.0000
  C   C163      1.0  0.47281  0.37401  0.37717  1.0000
  C   C164      1.0  0.62891  0.59278  0.33849  1.0000
  C   C165      1.0  0.64191  0.59565  0.42070  1.0000
  C   C166      1.0  0.68223  0.60420  0.34248  1.0000
  C   C167      1.0  0.66820  0.60125  0.42251  1.0000
  C   C168      1.0  0.70840  0.60836  0.34437  1.0000
  C   C169      1.0  0.71502  0.59328  0.40162  1.0000
  C   C170      1.0  0.74040  0.59640  0.40118  1.0000
  H   H89       1.0  0.74395  0.58436  0.44136  1.0000
  H   H90       1.0  0.70111  0.57911  0.44217  1.0000
  H   H91       1.0  0.67699  0.60308  0.48326  1.0000
  H   H92       1.0  0.63219  0.59319  0.47972  1.0000
  H   H93       1.0  0.63386  0.64146  0.33135  1.0000
  H   H94       1.0  0.60896  0.66647  0.32927  1.0000
  H   H95       1.0  0.55521  0.58788  0.33821  1.0000
  H   H96       1.0  0.51527  0.54797  0.33801  1.0000
  H   H97       1.0  0.56366  0.49598  0.33834  1.0000
  H   H98       1.0  0.50478  0.46797  0.47130  1.0000
  H   H99       1.0  0.49479  0.42312  0.46888  1.0000
  H   H100      1.0  0.43661  0.49439  0.33154  1.0000
  H   H101      1.0  0.50681  0.63986  0.33837  1.0000
  H   H102      1.0  0.46349  0.59658  0.34003  1.0000
  H   H103      1.0  0.43858  0.54280  0.47989  1.0000
  H   H104      1.0  0.39363  0.53241  0.48341  1.0000
  H   H105      1.0  0.36868  0.55559  0.44111  1.0000
  H   H106      1.0  0.32546  0.54940  0.44041  1.0000
  H   H107      1.0  0.56535  0.66759  0.47158  1.0000
  H   H108      1.0  0.57480  0.71227  0.46909  1.0000
  H   H109      1.0  0.61420  0.80119  0.41701  1.0000
  H   H110      1.0  0.60899  0.75813  0.41394  1.0000
  H   H111      1.0  0.46009  0.37765  0.41253  1.0000
  H   H112      1.0  0.45391  0.33421  0.41541  1.0000
  C   C171      1.0  0.46677  0.07982  0.33482  1.0000
  C   C172      1.0  0.45315  0.05264  0.33338  1.0000
  C   C173      1.0  0.47143  0.04399  0.33556  1.0000
  N   N9        1.0  0.49536  0.06617  0.33776  1.0000
  C   C174      1.0  0.49368  0.08839  0.33734  1.0000
  C   C175      1.0  0.51412  0.11517  0.33917  1.0000
  C   C176      1.0  0.54147  0.12382  0.33925  1.0000
  N   N10       1.0  0.55310  0.10893  0.33719  1.0000
  C   C177      1.0  0.57963  0.12378  0.33726  1.0000
  C   C178      1.0  0.58541  0.14994  0.33945  1.0000
  C   C179      1.0  0.56190  0.14997  0.34075  1.0000
  C   C180      1.0  0.59828  0.11507  0.33549  1.0000
  C   C181      1.0  0.59186  0.08826  0.33545  1.0000
  N   N11       1.0  0.56793  0.06609  0.33777  1.0000
  C   C182      1.0  0.56962  0.04387  0.33741  1.0000
  C   C183      1.0  0.59652  0.05244  0.33476  1.0000
  C   C184      1.0  0.61013  0.07961  0.33319  1.0000
  C   C185      1.0  0.54918  0.01708  0.33938  1.0000
  C   C186      1.0  0.52184  0.00842  0.33945  1.0000
  N   N12       1.0  0.51021  0.02332  0.33743  1.0000
  C   C187      1.0  0.48367  0.00847  0.33746  1.0000
  C   C188      1.0  0.47790  0.98231  0.33960  1.0000
  C   C189      1.0  0.50141  0.98228  0.34089  1.0000
  C   C190      1.0  0.46502  0.01718  0.33564  1.0000
  C   C191      1.0  0.43791  0.99745  0.33314  1.0000
  C   C192      1.0  0.38460  0.95556  0.32887  1.0000
  C   C193      1.0  0.39690  0.96768  0.41050  1.0000
  C   C194      1.0  0.42323  0.98829  0.41277  1.0000
  C   C195      1.0  0.35847  0.93349  0.32741  1.0000
  C   C196      1.0  0.33797  0.93325  0.37772  1.0000
  C   C197      1.0  0.31256  0.91096  0.37893  1.0000
  C   C198      1.0  0.30681  0.88808  0.33024  1.0000
  C   C199      1.0  0.55655  0.99734  0.34124  1.0000
  C   C200      1.0  0.56862  0.95589  0.34527  1.0000
  C   C201      1.0  0.56531  0.96671  0.42529  1.0000
  C   C202      1.0  0.55939  0.98717  0.42345  1.0000
  C   C203      1.0  0.57327  0.93418  0.34716  1.0000
  C   C204      1.0  0.58079  0.88946  0.34650  1.0000
  C   C205      1.0  0.56209  0.89041  0.40347  1.0000
  C   C206      1.0  0.55840  0.91233  0.40380  1.0000
  C   C207      1.0  0.62539  0.13479  0.33301  1.0000
  C   C208      1.0  0.64028  0.14355  0.41253  1.0000
  C   C209      1.0  0.66671  0.16394  0.41024  1.0000
  C   C210      1.0  0.67891  0.17623  0.32871  1.0000
  C   C211      1.0  0.70522  0.19797  0.32723  1.0000
  C   C212      1.0  0.75733  0.24269  0.32984  1.0000
  C   C213      1.0  0.75126  0.21952  0.37784  1.0000
  C   C214      1.0  0.72563  0.19758  0.37673  1.0000
  C   C215      1.0  0.50678  0.13492  0.34099  1.0000
  C   C216      1.0  0.50394  0.14491  0.42320  1.0000
  C   C217      1.0  0.49536  0.17682  0.34501  1.0000
  C   C218      1.0  0.49834  0.16559  0.42503  1.0000
  C   C219      1.0  0.49123  0.19885  0.34691  1.0000
  C   C220      1.0  0.50631  0.22043  0.40417  1.0000
  C   C221      1.0  0.50321  0.24270  0.40368  1.0000
  C   C222      1.0  0.48486  0.24427  0.34606  1.0000
  H   H113      1.0  0.51523  0.25820  0.44391  1.0000
  H   H114      1.0  0.52048  0.22060  0.44467  1.0000
  H   H115      1.0  0.49652  0.17244  0.48579  1.0000
  H   H116      1.0  0.50639  0.13752  0.48222  1.0000
  H   H117      1.0  0.45810  0.09121  0.33376  1.0000
  H   H118      1.0  0.43310  0.04131  0.33141  1.0000
  H   H119      1.0  0.51169  0.06614  0.34043  1.0000
  H   H120      1.0  0.55161  0.06611  0.34069  1.0000
  H   H121      1.0  0.56031  0.16653  0.34232  1.0000
  H   H122      1.0  0.60359  0.16648  0.34039  1.0000
  H   H123      1.0  0.63183  0.13553  0.47277  1.0000
  H   H124      1.0  0.67666  0.17038  0.46942  1.0000
  H   H125      1.0  0.63018  0.09094  0.33105  1.0000
  H   H126      1.0  0.60519  0.04105  0.33366  1.0000
  H   H127      1.0  0.45973  0.96576  0.34039  1.0000
  H   H128      1.0  0.50300  0.96571  0.34237  1.0000
  H   H129      1.0  0.55680  0.99433  0.48246  1.0000
  H   H130      1.0  0.56718  0.95976  0.48605  1.0000
  H   H131      1.0  0.54400  0.91171  0.44379  1.0000
  H   H132      1.0  0.55018  0.87467  0.44312  1.0000
  H   H133      1.0  0.43179  0.99613  0.47306  1.0000
  H   H134      1.0  0.38711  0.96092  0.46973  1.0000
  H   H135      1.0  0.29825  0.91158  0.41593  1.0000
  H   H136      1.0  0.34133  0.94942  0.41380  1.0000
  H   H137      1.0  0.72204  0.18118  0.41228  1.0000
  H   H138      1.0  0.76549  0.21845  0.41424  1.0000
  C   C223      1.0  0.23477  0.51561  0.33371  1.0000
  C   C224      1.0  0.24649  0.51569  0.41689  1.0000
  C   C225      1.0  0.27058  0.51582  0.41969  1.0000
  H   H139      1.0  0.27867  0.51616  0.48071  1.0000
  O   O1        1.0  0.23564  0.51660  0.49611  1.0000
  H   H140      1.0  0.24133  0.53523  0.50668  1.0000
  C   C226      1.0  0.58337  0.86650  0.34331  1.0000
  C   C227      1.0  0.58396  0.81797  0.33640  1.0000
  C   C228      1.0  0.58388  0.82944  0.41959  1.0000
  C   C229      1.0  0.58376  0.85340  0.42240  1.0000
  H   H141      1.0  0.58343  0.86103  0.48342  1.0000
  O   O2        1.0  0.58299  0.81754  0.49880  1.0000
  H   H142      1.0  0.56437  0.80456  0.50942  1.0000
  C   C230      1.0  0.26998  0.85300  0.41771  1.0000
  C   C231      1.0  0.24603  0.82889  0.41999  1.0000
  H   H143      1.0  0.23830  0.82074  0.48084  1.0000
  O   O3        1.0  0.28176  0.86376  0.49717  1.0000
  H   H144      1.0  0.29471  0.85807  0.50797  1.0000
  C   C232      1.0  0.83398  0.61604  0.33329  1.0000
  C   C233      1.0  0.82267  0.61645  0.41647  1.0000
  C   C234      1.0  0.79889  0.61694  0.41928  1.0000
  H   H145      1.0  0.79110  0.61695  0.48031  1.0000
  O   O4        1.0  0.83360  0.61544  0.49572  1.0000
  H   H146      1.0  0.82758  0.59675  0.50706  1.0000
  C   C235      1.0  0.48287  0.26758  0.34281  1.0000
  C   C236      1.0  0.48353  0.31675  0.33599  1.0000
  C   C237      1.0  0.48314  0.30486  0.41915  1.0000
  C   C238      1.0  0.48264  0.28059  0.42191  1.0000
  H   H147      1.0  0.48264  0.27266  0.48293  1.0000
  O   O5        1.0  0.48414  0.31664  0.49842  1.0000
  H   H148      1.0  0.50283  0.32927  0.50977  1.0000
  C   C239      1.0  0.79483  0.27700  0.41722  1.0000
  C   C240      1.0  0.81910  0.30078  0.41951  1.0000
  H   H149      1.0  0.82712  0.30864  0.48038  1.0000
  O   O6        1.0  0.78317  0.26615  0.49672  1.0000
  H   H150      1.0  0.77055  0.27218  0.50823  1.0000
