data_image0
_chemical_formula_structural       HNHNC3HNO2CHC3HNO2CHC2H3C2H3C3HNO2CHC3HNO2CHC2H3C2H3C2HNO2HC2HNO2HC6HOC6OH5N4C6HOC6OH5N4C6HOC6OH5N4C6HOC6OH4N3C6HOC6OH4N3C3H2CHC3H2CHC4HNO2CHC5HNO2CHC4H2CHC3H2CHC4HNO2CHC5HNO2CHC5H2C2HC4H2C2H
_chemical_formula_sum              "H80 N30 C140 O30"
_cell_length_a       32.7935
_cell_length_b       41.044
_cell_length_c       14.767
_cell_angle_alpha    88.6246
_cell_angle_beta     91.0769
_cell_angle_gamma    89.7168

_space_group_name_H-M_alt    "P 1"
_space_group_IT_number       1

loop_
  _space_group_symop_operation_xyz
  'x, y, z'

loop_
  _atom_site_type_symbol
  _atom_site_label
  _atom_site_symmetry_multiplicity
  _atom_site_fract_x
  _atom_site_fract_y
  _atom_site_fract_z
  _atom_site_occupancy
  H   H1        1.0  0.78075  0.36432  0.37762  1.0000
  N   N1        1.0  0.85143  0.34268  0.33724  1.0000
  H   H2        1.0  0.16427  0.67010  0.37762  1.0000
  N   N2        1.0  0.09291  0.69244  0.33723  1.0000
  C   C1        1.0  0.12591  0.12127  0.39520  1.0000
  C   C2        1.0  0.13963  0.14162  0.32363  1.0000
  C   C3        1.0  0.15712  0.17247  0.33997  1.0000
  H   H3        1.0  0.13476  0.13494  0.25793  1.0000
  N   N3        1.0  0.16829  0.19336  0.26675  1.0000
  O   O1        1.0  0.13769  0.20191  0.21930  1.0000
  O   O2        1.0  0.19387  0.18022  0.21667  1.0000
  C   C4        1.0  0.10824  0.09093  0.37601  1.0000
  H   H4        1.0  0.11264  0.08132  0.31350  1.0000
  C   C5        1.0  0.81940  0.91285  0.39527  1.0000
  C   C6        1.0  0.80448  0.89373  0.32369  1.0000
  C   C7        1.0  0.78727  0.86260  0.34003  1.0000
  H   H5        1.0  0.80823  0.90155  0.25798  1.0000
  N   N4        1.0  0.77487  0.84298  0.26679  1.0000
  O   O3        1.0  0.80467  0.83526  0.21936  1.0000
  O   O4        1.0  0.74844  0.85698  0.21670  1.0000
  C   C8        1.0  0.83674  0.94353  0.37609  1.0000
  H   H6        1.0  0.83128  0.95422  0.31359  1.0000
  C   C9        1.0  0.77889  0.15515  0.32777  1.0000
  C   C10       1.0  0.80382  0.12727  0.34146  1.0000
  H   H7        1.0  0.74912  0.15181  0.30803  1.0000
  H   H8        1.0  0.79141  0.10475  0.33203  1.0000
  H   H9        1.0  0.73736  0.21123  0.31356  1.0000
  C   C11       1.0  0.16530  0.88014  0.32777  1.0000
  C   C12       1.0  0.14060  0.90778  0.34142  1.0000
  H   H10       1.0  0.19473  0.88381  0.30805  1.0000
  H   H11       1.0  0.15285  0.93046  0.33199  1.0000
  H   H12       1.0  0.20657  0.82429  0.31359  1.0000
  C   C13       1.0  0.25689  0.55101  0.35817  1.0000
  C   C14       1.0  0.25229  0.53036  0.28346  1.0000
  C   C15       1.0  0.25221  0.49598  0.29468  1.0000
  H   H13       1.0  0.25071  0.54025  0.21914  1.0000
  N   N5        1.0  0.24853  0.47577  0.21847  1.0000
  O   O5        1.0  0.27830  0.47925  0.16685  1.0000
  O   O6        1.0  0.21616  0.48139  0.17378  1.0000
  C   C16       1.0  0.25674  0.58503  0.34461  1.0000
  H   H14       1.0  0.24608  0.59446  0.28369  1.0000
  C   C17       1.0  0.68781  0.48375  0.35815  1.0000
  C   C18       1.0  0.69116  0.50570  0.28346  1.0000
  C   C19       1.0  0.69144  0.53988  0.29468  1.0000
  H   H15       1.0  0.69166  0.49692  0.21913  1.0000
  N   N6        1.0  0.69384  0.56141  0.21848  1.0000
  O   O7        1.0  0.66320  0.55883  0.16681  1.0000
  O   O8        1.0  0.72546  0.55656  0.17382  1.0000
  C   C20       1.0  0.68774  0.44996  0.34459  1.0000
  H   H16       1.0  0.69736  0.44160  0.28368  1.0000
  C   C21       1.0  0.96015  0.34758  0.26682  1.0000
  C   C22       1.0  0.00139  0.34643  0.29599  1.0000
  H   H17       1.0  0.95422  0.35042  0.19874  1.0000
  H   H18       1.0  0.02358  0.34756  0.24820  1.0000
  H   H19       1.0  0.88460  0.33433  0.22550  1.0000
  C   C23       1.0  0.98299  0.68875  0.26682  1.0000
  C   C24       1.0  0.94224  0.68940  0.29599  1.0000
  H   H20       1.0  0.98776  0.68709  0.19873  1.0000
  H   H21       1.0  0.91924  0.68909  0.24819  1.0000
  H   H22       1.0  0.05784  0.70273  0.22549  1.0000
  C   C25       1.0  0.45900  0.33172  0.28061  1.0000
  C   C26       1.0  0.50106  0.33055  0.30642  1.0000
  H   H23       1.0  0.45157  0.33389  0.21304  1.0000
  N   N7        1.0  0.53143  0.33285  0.23967  1.0000
  O   O9        1.0  0.52974  0.30926  0.18708  1.0000
  O   O10       1.0  0.52858  0.35896  0.19365  1.0000
  H   H24       1.0  0.38168  0.34740  0.25363  1.0000
  C   C27       1.0  0.48438  0.70437  0.28062  1.0000
  C   C28       1.0  0.44275  0.70509  0.30643  1.0000
  H   H25       1.0  0.49065  0.70336  0.21306  1.0000
  N   N8        1.0  0.41124  0.70394  0.23968  1.0000
  O   O11       1.0  0.41203  0.72843  0.18708  1.0000
  O   O12       1.0  0.41331  0.67862  0.19369  1.0000
  H   H26       1.0  0.56123  0.68916  0.25365  1.0000
  C   C29       1.0  0.99488  0.01709  0.43016  1.0000
  C   C30       1.0  0.01788  0.98896  0.40906  1.0000
  C   C31       1.0  0.06028  0.98961  0.39232  1.0000
  C   C32       1.0  0.08042  0.01994  0.39250  1.0000
  C   C33       1.0  0.05959  0.04837  0.41945  1.0000
  C   C34       1.0  0.01796  0.04606  0.44177  1.0000
  H   H27       1.0  0.00296  0.96778  0.39747  1.0000
  O   O13       1.0  0.12118  0.02075  0.37587  1.0000
  C   C35       1.0  0.95104  0.01642  0.43022  1.0000
  C   C36       1.0  0.92817  0.98724  0.44175  1.0000
  C   C37       1.0  0.88614  0.98532  0.41951  1.0000
  C   C38       1.0  0.86487  0.01422  0.39260  1.0000
  C   C39       1.0  0.88500  0.04456  0.39245  1.0000
  C   C40       1.0  0.92768  0.04493  0.40928  1.0000
  O   O14       1.0  0.82382  0.01372  0.37596  1.0000
  H   H28       1.0  0.94240  0.06629  0.39746  1.0000
  H   H29       1.0  0.13529  0.01894  0.43518  1.0000
  H   H30       1.0  0.81072  0.01448  0.43527  1.0000
  H   H31       1.0  0.00382  0.06685  0.46186  1.0000
  H   H32       1.0  0.94265  0.96611  0.46186  1.0000
  N   N9        1.0  0.86194  0.07195  0.37756  1.0000
  N   N10       1.0  0.86853  0.95541  0.42474  1.0000
  N   N11       1.0  0.07729  0.07819  0.42468  1.0000
  N   N12       1.0  0.08308  0.96247  0.37747  1.0000
  C   C41       1.0  0.20094  0.32291  0.39665  1.0000
  C   C42       1.0  0.20010  0.28880  0.41776  1.0000
  C   C43       1.0  0.16360  0.27062  0.41491  1.0000
  C   C44       1.0  0.12593  0.28663  0.39969  1.0000
  C   C45       1.0  0.12413  0.32075  0.38518  1.0000
  C   C46       1.0  0.16163  0.33751  0.37745  1.0000
  H   H33       1.0  0.22644  0.27601  0.42966  1.0000
  O   O15       1.0  0.09121  0.26841  0.39485  1.0000
  C   C47       1.0  0.23868  0.34088  0.38893  1.0000
  C   C48       1.0  0.27874  0.32675  0.38591  1.0000
  C   C49       1.0  0.31387  0.34450  0.35869  1.0000
  C   C50       1.0  0.30903  0.37815  0.33620  1.0000
  C   C51       1.0  0.27229  0.39415  0.35693  1.0000
  C   C52       1.0  0.23837  0.37551  0.38384  1.0000
  O   O16       1.0  0.34179  0.39701  0.31449  1.0000
  H   H34       1.0  0.21249  0.38814  0.39748  1.0000
  H   H35       1.0  0.08614  0.26437  0.33021  1.0000
  H   H36       1.0  0.35503  0.40315  0.37195  1.0000
  H   H37       1.0  0.15917  0.36145  0.35809  1.0000
  H   H38       1.0  0.28266  0.30229  0.39636  1.0000
  N   N13       1.0  0.27149  0.42723  0.35352  1.0000
  N   N14       1.0  0.35175  0.33017  0.36405  1.0000
  N   N15       1.0  0.08759  0.33672  0.37256  1.0000
  N   N16       1.0  0.16181  0.23774  0.41907  1.0000
  C   C53       1.0  0.74441  0.71118  0.39666  1.0000
  C   C54       1.0  0.74561  0.74492  0.41777  1.0000
  C   C55       1.0  0.78206  0.76316  0.41493  1.0000
  C   C56       1.0  0.81947  0.74741  0.39970  1.0000
  C   C57       1.0  0.82102  0.71354  0.38518  1.0000
  C   C58       1.0  0.78339  0.69691  0.37745  1.0000
  H   H39       1.0  0.71946  0.75750  0.42968  1.0000
  O   O17       1.0  0.85410  0.76572  0.39485  1.0000
  C   C59       1.0  0.70654  0.69335  0.38894  1.0000
  C   C60       1.0  0.66643  0.70752  0.38592  1.0000
  C   C61       1.0  0.63083  0.69025  0.35871  1.0000
  C   C62       1.0  0.63529  0.65698  0.33621  1.0000
  C   C63       1.0  0.67239  0.64063  0.35694  1.0000
  C   C64       1.0  0.70676  0.65881  0.38385  1.0000
  O   O18       1.0  0.60217  0.63850  0.31450  1.0000
  H   H40       1.0  0.73288  0.64594  0.39749  1.0000
  H   H41       1.0  0.85808  0.77088  0.33021  1.0000
  H   H42       1.0  0.58990  0.63137  0.37196  1.0000
  H   H43       1.0  0.78552  0.67331  0.35809  1.0000
  H   H44       1.0  0.66268  0.73180  0.39636  1.0000
  N   N17       1.0  0.67313  0.60761  0.35352  1.0000
  N   N18       1.0  0.59304  0.70448  0.36406  1.0000
  N   N19       1.0  0.85735  0.69779  0.37256  1.0000
  N   N20       1.0  0.78392  0.79596  0.41910  1.0000
  C   C65       1.0  0.73876  0.32656  0.34241  1.0000
  C   C66       1.0  0.74050  0.29264  0.32376  1.0000
  C   C67       1.0  0.77749  0.27693  0.30291  1.0000
  C   C68       1.0  0.81320  0.29544  0.29023  1.0000
  C   C69       1.0  0.81487  0.32760  0.32179  1.0000
  C   C70       1.0  0.77801  0.34179  0.35066  1.0000
  H   H45       1.0  0.71535  0.27832  0.32991  1.0000
  O   O19       1.0  0.84833  0.27998  0.26804  1.0000
  C   C71       1.0  0.70096  0.34352  0.35947  1.0000
  C   C72       1.0  0.66137  0.32901  0.36438  1.0000
  C   C73       1.0  0.62610  0.34587  0.39387  1.0000
  C   C74       1.0  0.63030  0.37903  0.41782  1.0000
  C   C75       1.0  0.66637  0.39582  0.39554  1.0000
  C   C76       1.0  0.70037  0.37799  0.36630  1.0000
  O   O20       1.0  0.59722  0.39715  0.44090  1.0000
  H   H46       1.0  0.72561  0.39123  0.35115  1.0000
  H   H47       1.0  0.84623  0.27601  0.20270  1.0000
  H   H48       1.0  0.58358  0.40450  0.38399  1.0000
  H   H49       1.0  0.65773  0.30502  0.35004  1.0000
  N   N21       1.0  0.66650  0.42893  0.39755  1.0000
  N   N22       1.0  0.58851  0.33157  0.38672  1.0000
  N   N23       1.0  0.78357  0.24438  0.30966  1.0000
  C   C77       1.0  0.20567  0.70847  0.34241  1.0000
  C   C78       1.0  0.20361  0.74271  0.32377  1.0000
  C   C79       1.0  0.16627  0.75879  0.30291  1.0000
  C   C80       1.0  0.13034  0.74050  0.29022  1.0000
  C   C81       1.0  0.12921  0.70779  0.32178  1.0000
  C   C82       1.0  0.16656  0.69310  0.35065  1.0000
  H   H50       1.0  0.22886  0.75693  0.32993  1.0000
  O   O21       1.0  0.09483  0.75634  0.26802  1.0000
  C   C83       1.0  0.24375  0.69121  0.35949  1.0000
  C   C84       1.0  0.28343  0.70563  0.36439  1.0000
  C   C85       1.0  0.31920  0.68827  0.39389  1.0000
  C   C86       1.0  0.31541  0.65470  0.41785  1.0000
  C   C87       1.0  0.27896  0.63828  0.39558  1.0000
  C   C88       1.0  0.24446  0.65662  0.36632  1.0000
  O   O22       1.0  0.34889  0.63618  0.44094  1.0000
  H   H51       1.0  0.21897  0.64365  0.35117  1.0000
  H   H52       1.0  0.09582  0.76144  0.20269  1.0000
  H   H53       1.0  0.36155  0.62981  0.38403  1.0000
  H   H54       1.0  0.28683  0.72988  0.35004  1.0000
  N   N24       1.0  0.27887  0.60515  0.39758  1.0000
  N   N25       1.0  0.35667  0.70269  0.38674  1.0000
  N   N26       1.0  0.16030  0.79121  0.30966  1.0000
  C   C89       1.0  0.16575  0.18161  0.43065  1.0000
  C   C90       1.0  0.15464  0.16016  0.50236  1.0000
  C   C91       1.0  0.13264  0.13148  0.48495  1.0000
  H   H55       1.0  0.15968  0.16647  0.56827  1.0000
  H   H56       1.0  0.12426  0.11692  0.53861  1.0000
  C   C92       1.0  0.18397  0.21187  0.44894  1.0000
  H   H57       1.0  0.20029  0.21488  0.50782  1.0000
  C   C93       1.0  0.78018  0.85189  0.43069  1.0000
  C   C94       1.0  0.79249  0.87210  0.50241  1.0000
  C   C95       1.0  0.81419  0.90108  0.48501  1.0000
  H   H58       1.0  0.78856  0.86465  0.56832  1.0000
  H   H59       1.0  0.82348  0.91472  0.53867  1.0000
  C   C96       1.0  0.76227  0.82131  0.44897  1.0000
  H   H60       1.0  0.74695  0.81728  0.50785  1.0000
  C   C97       1.0  0.84532  0.13026  0.36701  1.0000
  C   C98       1.0  0.86047  0.16192  0.38039  1.0000
  C   C99       1.0  0.83609  0.19015  0.36630  1.0000
  C   C100      1.0  0.79454  0.18708  0.33705  1.0000
  H   H61       1.0  0.89007  0.16484  0.40217  1.0000
  N   N27       1.0  0.85309  0.22065  0.38920  1.0000
  O   O23       1.0  0.88606  0.22615  0.34945  1.0000
  O   O24       1.0  0.85964  0.22234  0.47312  1.0000
  C   C101      1.0  0.87237  0.10375  0.38150  1.0000
  H   H62       1.0  0.90166  0.10905  0.40057  1.0000
  C   C102      1.0  0.76823  0.21419  0.32012  1.0000
  C   C103      1.0  0.09952  0.90434  0.36695  1.0000
  C   C104      1.0  0.08460  0.87246  0.38033  1.0000
  C   C105      1.0  0.10875  0.84447  0.36627  1.0000
  C   C106      1.0  0.14980  0.84804  0.33705  1.0000
  H   H63       1.0  0.05537  0.86916  0.40208  1.0000
  N   N28       1.0  0.09213  0.81357  0.38918  1.0000
  O   O25       1.0  0.05849  0.80875  0.34942  1.0000
  O   O26       1.0  0.08700  0.81044  0.47310  1.0000
  C   C107      1.0  0.07272  0.93060  0.38137  1.0000
  H   H64       1.0  0.04375  0.92498  0.40041  1.0000
  C   C108      1.0  0.17583  0.82122  0.32014  1.0000
  C   C109      1.0  0.25217  0.48200  0.38369  1.0000
  C   C110      1.0  0.25415  0.50288  0.45855  1.0000
  C   C111      1.0  0.25916  0.53668  0.44595  1.0000
  H   H65       1.0  0.25438  0.49347  0.52344  1.0000
  H   H66       1.0  0.26105  0.55092  0.50184  1.0000
  C   C112      1.0  0.24824  0.44821  0.39976  1.0000
  H   H67       1.0  0.23815  0.43993  0.46132  1.0000
  C   C113      1.0  0.69297  0.55231  0.38369  1.0000
  C   C114      1.0  0.69223  0.53014  0.45855  1.0000
  C   C115      1.0  0.68702  0.49655  0.44594  1.0000
  H   H68       1.0  0.69310  0.53842  0.52344  1.0000
  H   H69       1.0  0.68606  0.48134  0.50182  1.0000
  C   C116      1.0  0.69717  0.58582  0.39976  1.0000
  H   H70       1.0  0.70830  0.59304  0.46134  1.0000
  C   C117      1.0  0.01180  0.33884  0.38724  1.0000
  C   C118      1.0  0.97931  0.33607  0.44892  1.0000
  C   C119      1.0  0.93768  0.33973  0.42163  1.0000
  C   C120      1.0  0.92744  0.34410  0.32805  1.0000
  H   H71       1.0  0.98580  0.33059  0.51570  1.0000
  N   N29       1.0  0.90648  0.33535  0.48578  1.0000
  O   O27       1.0  0.90752  0.30732  0.52205  1.0000
  O   O28       1.0  0.90878  0.35611  0.54681  1.0000
  C   C121      1.0  0.05198  0.32999  0.41540  1.0000
  H   H72       1.0  0.05486  0.31730  0.47588  1.0000
  C   C122      1.0  0.88722  0.34045  0.29221  1.0000
  C   C123      1.0  0.93339  0.69542  0.38724  1.0000
  C   C124      1.0  0.96693  0.69712  0.44891  1.0000
  C   C125      1.0  0.00810  0.69394  0.42162  1.0000
  C   C126      1.0  0.01675  0.69119  0.32804  1.0000
  H   H73       1.0  0.96158  0.70146  0.51569  1.0000
  N   N30       1.0  0.04039  0.69722  0.48577  1.0000
  O   O29       1.0  0.03997  0.72463  0.52201  1.0000
  O   O30       1.0  0.03913  0.67541  0.54682  1.0000
  C   C127      1.0  0.89369  0.70379  0.41539  1.0000
  H   H74       1.0  0.89184  0.71542  0.47586  1.0000
  C   C128      1.0  0.05635  0.69545  0.29220  1.0000
  C   C129      1.0  0.42721  0.33055  0.34442  1.0000
  C   C130      1.0  0.51256  0.33085  0.39983  1.0000
  C   C131      1.0  0.48059  0.32946  0.46348  1.0000
  C   C132      1.0  0.43906  0.32773  0.43673  1.0000
  H   H75       1.0  0.48731  0.32997  0.53144  1.0000
  H   H76       1.0  0.41747  0.32810  0.48585  1.0000
  C   C133      1.0  0.38616  0.33666  0.31638  1.0000
  C   C134      1.0  0.55309  0.33679  0.43136  1.0000
  H   H77       1.0  0.55635  0.34619  0.49470  1.0000
  C   C135      1.0  0.51725  0.70444  0.34443  1.0000
  C   C136      1.0  0.43285  0.70318  0.39984  1.0000
  C   C137      1.0  0.46589  0.70348  0.46349  1.0000
  C   C138      1.0  0.50697  0.70567  0.43674  1.0000
  H   H78       1.0  0.46033  0.70181  0.53146  1.0000
  H   H79       1.0  0.52940  0.70445  0.48586  1.0000
  C   C139      1.0  0.55782  0.69881  0.31639  1.0000
  C   C140      1.0  0.39285  0.69670  0.43138  1.0000
  H   H80       1.0  0.39067  0.68621  0.49472  1.0000
