data_image0
_chemical_formula_structural       C3NC3NC5NC4NC35H25C4HC6HOHOHC4HC6HOHOHC18H17CNCHNHCNCHNH
_chemical_formula_sum              "C92 N8 H54 O4"
_cell_length_a       34.1674
_cell_length_b       34.1672
_cell_length_c       14.8925
_cell_angle_alpha    90
_cell_angle_beta     90
_cell_angle_gamma    90.0629

_space_group_name_H-M_alt    "P 1"
_space_group_IT_number       1

loop_
  _space_group_symop_operation_xyz
  'x, y, z'

loop_
  _atom_site_type_symbol
  _atom_site_label
  _atom_site_symmetry_multiplicity
  _atom_site_fract_x
  _atom_site_fract_y
  _atom_site_fract_z
  _atom_site_occupancy
  C   C1        1.0  0.10720  0.07695  0.34119  1.0000
  C   C2        1.0  0.07865  0.10553  0.34084  1.0000
  C   C3        1.0  0.04208  0.08717  0.34145  1.0000
  N   N1        1.0  0.04987  0.04824  0.34190  1.0000
  C   C4        1.0  0.08879  0.04040  0.34161  1.0000
  C   C5        1.0  0.10854  0.00371  0.34180  1.0000
  C   C6        1.0  0.08968  0.96663  0.34196  1.0000
  N   N2        1.0  0.05083  0.95907  0.34191  1.0000
  C   C7        1.0  0.04322  0.92022  0.34182  1.0000
  C   C8        1.0  0.07962  0.90164  0.34195  1.0000
  C   C9        1.0  0.10822  0.93021  0.34182  1.0000
  C   C10       1.0  0.00612  0.90141  0.34180  1.0000
  C   C11       1.0  0.96946  0.92119  0.34164  1.0000
  N   N3        1.0  0.96167  0.96012  0.34126  1.0000
  C   C12       1.0  0.92275  0.96795  0.34096  1.0000
  C   C13       1.0  0.90435  0.93138  0.34139  1.0000
  C   C14       1.0  0.93290  0.90282  0.34153  1.0000
  C   C15       1.0  0.90298  0.00462  0.34068  1.0000
  N   N4        1.0  0.96070  0.04928  0.34109  1.0000
  C   C16       1.0  0.96831  0.08812  0.34093  1.0000
  C   C17       1.0  0.93190  0.10669  0.34073  1.0000
  C   C18       1.0  0.90330  0.07812  0.34033  1.0000
  C   C19       1.0  0.00541  0.10696  0.34112  1.0000
  C   C20       1.0  0.00575  0.14874  0.34061  1.0000
  C   C21       1.0  0.00151  0.16962  0.25939  1.0000
  C   C22       1.0  0.00123  0.21083  0.25918  1.0000
  C   C23       1.0  0.00521  0.23254  0.33983  1.0000
  C   C24       1.0  0.00459  0.27453  0.33948  1.0000
  C   C25       1.0  0.97754  0.33671  0.28371  1.0000
  C   C26       1.0  0.97799  0.29551  0.28473  1.0000
  C   C27       1.0  0.86120  0.00426  0.34006  1.0000
  C   C28       1.0  0.84044  0.99968  0.25877  1.0000
  C   C29       1.0  0.79923  0.99914  0.25832  1.0000
  C   C30       1.0  0.77741  0.00324  0.33877  1.0000
  C   C31       1.0  0.73542  0.00260  0.33814  1.0000
  C   C32       1.0  0.71445  0.97586  0.28360  1.0000
  C   C33       1.0  0.67324  0.97541  0.28232  1.0000
  C   C34       1.0  0.65118  0.00155  0.33589  1.0000
  C   C35       1.0  0.00574  0.85963  0.34155  1.0000
  C   C36       1.0  0.00528  0.77582  0.34088  1.0000
  C   C37       1.0  0.00847  0.79751  0.25997  1.0000
  C   C38       1.0  0.00869  0.83871  0.26012  1.0000
  C   C39       1.0  0.00525  0.73380  0.34048  1.0000
  C   C40       1.0  0.03024  0.71242  0.28258  1.0000
  C   C41       1.0  0.02994  0.67122  0.28121  1.0000
  C   C42       1.0  0.00486  0.64958  0.33829  1.0000
  C   C43       1.0  0.15031  0.00401  0.34129  1.0000
  C   C44       1.0  0.17111  0.00687  0.25967  1.0000
  C   C45       1.0  0.21232  0.00677  0.25919  1.0000
  C   C46       1.0  0.23413  0.00380  0.33996  1.0000
  C   C47       1.0  0.27615  0.00367  0.33920  1.0000
  C   C48       1.0  0.36038  0.00306  0.33639  1.0000
  C   C49       1.0  0.33877  0.02800  0.27901  1.0000
  C   C50       1.0  0.29757  0.02840  0.28067  1.0000
  H   H1        1.0  0.35290  0.04674  0.23631  1.0000
  H   H2        1.0  0.28337  0.04761  0.23933  1.0000
  H   H3        1.0  0.22626  0.00809  0.19848  1.0000
  H   H4        1.0  0.15639  0.00879  0.19998  1.0000
  H   H5        1.0  0.13659  0.08249  0.34088  1.0000
  H   H6        1.0  0.08424  0.13491  0.34010  1.0000
  H   H7        1.0  0.02998  0.02838  0.34241  1.0000
  H   H8        1.0  0.98155  0.97999  0.34100  1.0000
  H   H9        1.0  0.13763  0.92482  0.34167  1.0000
  H   H10       1.0  0.08497  0.87222  0.34203  1.0000
  H   H11       1.0  0.01092  0.85334  0.20036  1.0000
  H   H12       1.0  0.00995  0.78348  0.19940  1.0000
  H   H13       1.0  0.92732  0.87343  0.34165  1.0000
  H   H14       1.0  0.87496  0.92582  0.34156  1.0000
  H   H15       1.0  0.87389  0.08350  0.33986  1.0000
  H   H16       1.0  0.85519  0.99680  0.19933  1.0000
  H   H17       1.0  0.78528  0.99642  0.19786  1.0000
  H   H18       1.0  0.65947  0.95517  0.24273  1.0000
  H   H19       1.0  0.72901  0.95583  0.24504  1.0000
  H   H20       1.0  0.95803  0.28096  0.24589  1.0000
  H   H21       1.0  0.95740  0.35049  0.24393  1.0000
  H   H22       1.0  0.99865  0.22485  0.19880  1.0000
  H   H23       1.0  0.99858  0.15494  0.19986  1.0000
  H   H24       1.0  0.04954  0.72665  0.24143  1.0000
  H   H25       1.0  0.04885  0.65712  0.23891  1.0000
  C   C51       1.0  0.00421  0.60775  0.33564  1.0000
  C   C52       1.0  0.00387  0.52493  0.33210  1.0000
  C   C53       1.0  0.00233  0.54588  0.24974  1.0000
  C   C54       1.0  0.00266  0.58728  0.25309  1.0000
  H   H26       1.0  0.00117  0.60286  0.19451  1.0000
  C   C55       1.0  0.00382  0.48355  0.33199  1.0000
  C   C56       1.0  0.00357  0.40067  0.33516  1.0000
  C   C57       1.0  0.00152  0.42127  0.25279  1.0000
  C   C58       1.0  0.00180  0.46268  0.24958  1.0000
  C   C59       1.0  0.00027  0.48365  0.16763  1.0000
  C   C60       1.0  0.00063  0.52499  0.16769  1.0000
  H   H27       1.0  0.00070  0.40579  0.19402  1.0000
  O   O1        1.0  0.99736  0.46458  0.08754  1.0000
  H   H28       1.0  0.02433  0.46038  0.06663  1.0000
  O   O2        1.0  0.99818  0.54415  0.08765  1.0000
  H   H29       1.0  0.02526  0.54804  0.06711  1.0000
  C   C61       1.0  0.40220  0.00237  0.33367  1.0000
  C   C62       1.0  0.48503  0.00190  0.33013  1.0000
  C   C63       1.0  0.46407  0.00020  0.24779  1.0000
  C   C64       1.0  0.42267  0.00059  0.25113  1.0000
  H   H30       1.0  0.40708  0.99900  0.19258  1.0000
  C   C65       1.0  0.52641  0.00180  0.33004  1.0000
  C   C66       1.0  0.60929  0.00151  0.33328  1.0000
  C   C67       1.0  0.58869  0.99925  0.25093  1.0000
  C   C68       1.0  0.54729  0.99956  0.24768  1.0000
  C   C69       1.0  0.52631  0.99786  0.16575  1.0000
  C   C70       1.0  0.48497  0.99828  0.16577  1.0000
  H   H31       1.0  0.60418  0.99830  0.19217  1.0000
  O   O3        1.0  0.54537  0.99475  0.08571  1.0000
  H   H32       1.0  0.54968  0.02167  0.06449  1.0000
  O   O4        1.0  0.46581  0.99566  0.08575  1.0000
  H   H33       1.0  0.46204  0.02270  0.06483  1.0000
  C   C71       1.0  0.92184  0.04170  0.34083  1.0000
  C   C72       1.0  0.00964  0.21119  0.42084  1.0000
  C   C73       1.0  0.00983  0.16997  0.42141  1.0000
  C   C74       1.0  0.03052  0.29666  0.39371  1.0000
  C   C75       1.0  0.02998  0.33789  0.39300  1.0000
  C   C76       1.0  0.00358  0.35877  0.33768  1.0000
  C   C77       1.0  0.79865  0.00792  0.41988  1.0000
  C   C78       1.0  0.83986  0.00837  0.42068  1.0000
  C   C79       1.0  0.67206  0.02811  0.39095  1.0000
  C   C80       1.0  0.71328  0.02866  0.39188  1.0000
  C   C81       1.0  0.00248  0.83848  0.42263  1.0000
  C   C82       1.0  0.00222  0.79726  0.42212  1.0000
  C   C83       1.0  0.98015  0.67078  0.39694  1.0000
  C   C84       1.0  0.98024  0.71201  0.39771  1.0000
  C   C85       1.0  0.17159  0.00103  0.42224  1.0000
  C   C86       1.0  0.21281  0.00093  0.42141  1.0000
  C   C87       1.0  0.29791  0.97878  0.39663  1.0000
  C   C88       1.0  0.33914  0.97860  0.39560  1.0000
  H   H34       1.0  0.35354  0.95952  0.43696  1.0000
  H   H35       1.0  0.28391  0.95970  0.43871  1.0000
  H   H36       1.0  0.22712  0.99945  0.48162  1.0000
  H   H37       1.0  0.15722  0.99900  0.48235  1.0000
  H   H38       1.0  0.00046  0.85295  0.48262  1.0000
  H   H39       1.0  0.00062  0.78304  0.48243  1.0000
  H   H40       1.0  0.92653  0.13610  0.34071  1.0000
  H   H41       1.0  0.85420  0.01156  0.48058  1.0000
  H   H42       1.0  0.78429  0.01028  0.47988  1.0000
  H   H43       1.0  0.72700  0.04914  0.43091  1.0000
  H   H44       1.0  0.65740  0.04813  0.42934  1.0000
  H   H45       1.0  0.01270  0.15556  0.48128  1.0000
  H   H46       1.0  0.01185  0.22548  0.48098  1.0000
  H   H47       1.0  0.04990  0.35255  0.43177  1.0000
  H   H48       1.0  0.05087  0.28294  0.43300  1.0000
  H   H49       1.0  0.96100  0.72599  0.43935  1.0000
  H   H50       1.0  0.96100  0.65634  0.43813  1.0000
  C   C89       1.0  0.00521  0.58498  0.41489  1.0000
  N   N5        1.0  0.00522  0.54531  0.41049  1.0000
  C   C90       1.0  0.00585  0.42342  0.41434  1.0000
  H   H51       1.0  0.00679  0.59790  0.47666  1.0000
  N   N6        1.0  0.00568  0.46309  0.41019  1.0000
  H   H52       1.0  0.00684  0.41049  0.47616  1.0000
  C   C91       1.0  0.42499  0.00353  0.41291  1.0000
  N   N7        1.0  0.46466  0.00348  0.40849  1.0000
  C   C92       1.0  0.58653  0.00395  0.41243  1.0000
  H   H53       1.0  0.41209  0.00529  0.47461  1.0000
  N   N8        1.0  0.54686  0.00381  0.40825  1.0000
  H   H54       1.0  0.59945  0.00512  0.47424  1.0000
