data_image0
_chemical_formula_structural       HNHNC3NC2NH2CHC3NC2NH2CHC2H3C2H3C3NC2NH2CHC3NC2NH2CHC2H5C2H5C2NC2NH3C2NC2NH3C6HNC6NH7N4C6HNC6NH7N4C6HNC6NH7N4C6HNC6NH6N3C6HNC6NH6N3C3H2CHC3H2CHC4NC2NH2CHC5NC2NH2CHC4H2CHC3H2CHC4NC2NCHC5NC2NCHC5H2C2HC4H2C2H
_chemical_formula_sum              "H100 N50 C160"
_cell_length_a       32.9805
_cell_length_b       41.2953
_cell_length_c       14.8719
_cell_angle_alpha    88.3712
_cell_angle_beta     91.2757
_cell_angle_gamma    90.3177

_space_group_name_H-M_alt    "P 1"
_space_group_IT_number       1

loop_
  _space_group_symop_operation_xyz
  'x, y, z'

loop_
  _atom_site_type_symbol
  _atom_site_label
  _atom_site_symmetry_multiplicity
  _atom_site_fract_x
  _atom_site_fract_y
  _atom_site_fract_z
  _atom_site_occupancy
  H   H1        1.0  0.79098  0.37264  0.40006  1.0000
  N   N1        1.0  0.86202  0.34886  0.39313  1.0000
  H   H2        1.0  0.16166  0.66878  0.40038  1.0000
  N   N2        1.0  0.09056  0.69275  0.39316  1.0000
  C   C1        1.0  0.10435  0.13408  0.33781  1.0000
  C   C2        1.0  0.11452  0.15938  0.27588  1.0000
  C   C3        1.0  0.13798  0.18651  0.30414  1.0000
  N   N3        1.0  0.14649  0.20983  0.24051  1.0000
  C   C4        1.0  0.13507  0.20827  0.15263  1.0000
  C   C5        1.0  0.11245  0.18133  0.12499  1.0000
  N   N4        1.0  0.10308  0.15811  0.18739  1.0000
  H   H3        1.0  0.14251  0.22650  0.10810  1.0000
  H   H4        1.0  0.10306  0.17919  0.05952  1.0000
  C   C6        1.0  0.07841  0.10839  0.31373  1.0000
  H   H5        1.0  0.06069  0.11015  0.25648  1.0000
  C   C7        1.0  0.84713  0.90857  0.33755  1.0000
  C   C8        1.0  0.83604  0.88440  0.27578  1.0000
  C   C9        1.0  0.81309  0.85671  0.30400  1.0000
  N   N5        1.0  0.80362  0.83456  0.24051  1.0000
  C   C10       1.0  0.81362  0.83776  0.15279  1.0000
  C   C11       1.0  0.83571  0.86525  0.12518  1.0000
  N   N6        1.0  0.84604  0.88732  0.18745  1.0000
  H   H6        1.0  0.80551  0.82034  0.10838  1.0000
  H   H7        1.0  0.84406  0.86862  0.05985  1.0000
  C   C12       1.0  0.87249  0.93483  0.31345  1.0000
  H   H8        1.0  0.88942  0.93401  0.25673  1.0000
  C   C13       1.0  0.84745  0.17981  0.29643  1.0000
  C   C14       1.0  0.85627  0.14727  0.31765  1.0000
  H   H9        1.0  0.88060  0.13724  0.28745  1.0000
  H   H10       1.0  0.86632  0.19199  0.25318  1.0000
  H   H11       1.0  0.83364  0.24070  0.28226  1.0000
  C   C15       1.0  0.10340  0.86371  0.29590  1.0000
  C   C16       1.0  0.09499  0.89581  0.31714  1.0000
  H   H12       1.0  0.07006  0.90646  0.28697  1.0000
  H   H13       1.0  0.08367  0.85242  0.25261  1.0000
  H   H14       1.0  0.11691  0.80310  0.28171  1.0000
  C   C17       1.0  0.25189  0.48658  0.33236  1.0000
  C   C18       1.0  0.24963  0.51250  0.26813  1.0000
  C   C19       1.0  0.25112  0.54516  0.29642  1.0000
  N   N7        1.0  0.25001  0.56908  0.23131  1.0000
  C   C20       1.0  0.24860  0.56343  0.14193  1.0000
  C   C21       1.0  0.24769  0.53123  0.11429  1.0000
  N   N8        1.0  0.24833  0.50713  0.17813  1.0000
  H   H15       1.0  0.24797  0.58230  0.09605  1.0000
  H   H16       1.0  0.24663  0.52590  0.04766  1.0000
  C   C22       1.0  0.24998  0.45397  0.30785  1.0000
  H   H17       1.0  0.23672  0.44780  0.24782  1.0000
  C   C23       1.0  0.69985  0.55623  0.33270  1.0000
  C   C24       1.0  0.69990  0.53160  0.26844  1.0000
  C   C25       1.0  0.69871  0.49839  0.29684  1.0000
  N   N9        1.0  0.69760  0.47579  0.23174  1.0000
  C   C26       1.0  0.69654  0.48324  0.14234  1.0000
  C   C27       1.0  0.69714  0.51600  0.11464  1.0000
  N   N10       1.0  0.69868  0.53880  0.17843  1.0000
  H   H18       1.0  0.69557  0.46530  0.09648  1.0000
  H   H19       1.0  0.69636  0.52268  0.04799  1.0000
  C   C28       1.0  0.70132  0.58933  0.30816  1.0000
  H   H20       1.0  0.71301  0.59666  0.24771  1.0000
  C   C29       1.0  0.96814  0.34935  0.30671  1.0000
  C   C30       1.0  0.00997  0.34980  0.32965  1.0000
  H   H21       1.0  0.91038  0.35179  0.00183  1.0000
  H   H22       1.0  0.98289  0.34844  0.04233  1.0000
  H   H23       1.0  0.03024  0.34812  0.27887  1.0000
  H   H24       1.0  0.96012  0.34837  0.23990  1.0000
  H   H25       1.0  0.89192  0.33299  0.28510  1.0000
  C   C31       1.0  0.98270  0.69396  0.30694  1.0000
  C   C32       1.0  0.94133  0.69308  0.32998  1.0000
  H   H26       1.0  0.04118  0.69125  0.00194  1.0000
  H   H27       1.0  0.96949  0.69380  0.04258  1.0000
  H   H28       1.0  0.92006  0.69572  0.27918  1.0000
  H   H29       1.0  0.98936  0.69624  0.24012  1.0000
  H   H30       1.0  0.05847  0.71078  0.28514  1.0000
  C   C33       1.0  0.46471  0.33602  0.27901  1.0000
  C   C34       1.0  0.50731  0.33484  0.30009  1.0000
  N   N11       1.0  0.53341  0.33483  0.23039  1.0000
  C   C35       1.0  0.52132  0.33496  0.14270  1.0000
  C   C36       1.0  0.47965  0.33575  0.12185  1.0000
  N   N12       1.0  0.45326  0.33632  0.19033  1.0000
  H   H31       1.0  0.54225  0.33486  0.09314  1.0000
  H   H32       1.0  0.46925  0.33607  0.05664  1.0000
  H   H33       1.0  0.38716  0.35383  0.26516  1.0000
  C   C37       1.0  0.48560  0.70752  0.27923  1.0000
  C   C38       1.0  0.44341  0.70823  0.30034  1.0000
  N   N13       1.0  0.41592  0.70958  0.23064  1.0000
  C   C39       1.0  0.42626  0.71120  0.14294  1.0000
  C   C40       1.0  0.46751  0.71089  0.12207  1.0000
  N   N14       1.0  0.49527  0.70898  0.19055  1.0000
  H   H34       1.0  0.40433  0.71225  0.09338  1.0000
  H   H35       1.0  0.47660  0.71185  0.05686  1.0000
  H   H36       1.0  0.56292  0.69014  0.26533  1.0000
  C   C41       1.0  0.95377  0.02164  0.32671  1.0000
  C   C42       1.0  0.92971  0.99295  0.32567  1.0000
  C   C43       1.0  0.88799  0.99231  0.34565  1.0000
  C   C44       1.0  0.86703  0.02147  0.36166  1.0000
  C   C45       1.0  0.88916  0.05108  0.35463  1.0000
  C   C46       1.0  0.93105  0.05055  0.33610  1.0000
  H   H37       1.0  0.94261  0.97119  0.31497  1.0000
  N   N15       1.0  0.82591  0.02067  0.37094  1.0000
  C   C47       1.0  0.99761  0.02124  0.32664  1.0000
  C   C48       1.0  0.02053  0.99214  0.33593  1.0000
  C   C49       1.0  0.06280  0.99123  0.35438  1.0000
  C   C50       1.0  0.08504  0.02071  0.36143  1.0000
  C   C51       1.0  0.06376  0.05020  0.34556  1.0000
  C   C52       1.0  0.02164  0.04995  0.32555  1.0000
  N   N16       1.0  0.12635  0.02134  0.37077  1.0000
  H   H38       1.0  0.00850  0.07193  0.31509  1.0000
  H   H39       1.0  0.14234  0.00253  0.35890  1.0000
  H   H40       1.0  0.14150  0.04157  0.37125  1.0000
  H   H41       1.0  0.80974  0.03976  0.35887  1.0000
  H   H42       1.0  0.81072  0.00047  0.37138  1.0000
  H   H43       1.0  0.94541  0.07240  0.33626  1.0000
  H   H44       1.0  0.00617  0.97029  0.33610  1.0000
  N   N17       1.0  0.08462  0.07851  0.35025  1.0000
  N   N18       1.0  0.07803  0.96081  0.36375  1.0000
  N   N19       1.0  0.87413  0.08132  0.36408  1.0000
  N   N20       1.0  0.86715  0.96395  0.35008  1.0000
  C   C53       1.0  0.20907  0.32937  0.36471  1.0000
  C   C54       1.0  0.20850  0.29503  0.36864  1.0000
  C   C55       1.0  0.17349  0.27642  0.38729  1.0000
  C   C56       1.0  0.13511  0.29180  0.39587  1.0000
  C   C57       1.0  0.13342  0.32632  0.38828  1.0000
  C   C58       1.0  0.16973  0.34380  0.36995  1.0000
  H   H45       1.0  0.23458  0.28256  0.35858  1.0000
  N   N21       1.0  0.10007  0.27390  0.39232  1.0000
  C   C59       1.0  0.24688  0.34729  0.35778  1.0000
  C   C60       1.0  0.28658  0.33396  0.37518  1.0000
  C   C61       1.0  0.32323  0.35233  0.37058  1.0000
  C   C62       1.0  0.32021  0.38671  0.36266  1.0000
  C   C63       1.0  0.28169  0.40073  0.34339  1.0000
  C   C64       1.0  0.24682  0.38095  0.33539  1.0000
  N   N22       1.0  0.35320  0.40622  0.37724  1.0000
  H   H46       1.0  0.22026  0.39246  0.32021  1.0000
  H   H47       1.0  0.37842  0.39770  0.40257  1.0000
  H   H48       1.0  0.35131  0.42970  0.37391  1.0000
  H   H49       1.0  0.07403  0.28389  0.37997  1.0000
  H   H50       1.0  0.10016  0.25094  0.38244  1.0000
  H   H51       1.0  0.16701  0.36836  0.36853  1.0000
  H   H52       1.0  0.28976  0.30985  0.39001  1.0000
  N   N23       1.0  0.27772  0.43336  0.34444  1.0000
  N   N24       1.0  0.36021  0.33715  0.37862  1.0000
  N   N25       1.0  0.09772  0.34334  0.38928  1.0000
  N   N26       1.0  0.17824  0.24387  0.38296  1.0000
  C   C65       1.0  0.74296  0.71274  0.36501  1.0000
  C   C66       1.0  0.74357  0.74700  0.36889  1.0000
  C   C67       1.0  0.77892  0.76525  0.38778  1.0000
  C   C68       1.0  0.81747  0.74972  0.39640  1.0000
  C   C69       1.0  0.81908  0.71536  0.38881  1.0000
  C   C70       1.0  0.78242  0.69822  0.37049  1.0000
  H   H53       1.0  0.71729  0.75965  0.35862  1.0000
  N   N27       1.0  0.85240  0.76773  0.39301  1.0000
  C   C71       1.0  0.70504  0.69493  0.35798  1.0000
  C   C72       1.0  0.66566  0.70786  0.37536  1.0000
  C   C73       1.0  0.62895  0.68953  0.37076  1.0000
  C   C74       1.0  0.63190  0.65531  0.36281  1.0000
  C   C75       1.0  0.67006  0.64174  0.34357  1.0000
  C   C76       1.0  0.70473  0.66173  0.33565  1.0000
  N   N28       1.0  0.59927  0.63545  0.37738  1.0000
  H   H54       1.0  0.73100  0.65059  0.32022  1.0000
  H   H55       1.0  0.57439  0.64339  0.40209  1.0000
  H   H56       1.0  0.60104  0.61205  0.37346  1.0000
  H   H57       1.0  0.87832  0.75810  0.38127  1.0000
  H   H58       1.0  0.85223  0.79093  0.38388  1.0000
  H   H59       1.0  0.78514  0.67370  0.36885  1.0000
  H   H60       1.0  0.66273  0.73167  0.39018  1.0000
  N   N29       1.0  0.67419  0.60910  0.34474  1.0000
  N   N30       1.0  0.59210  0.70450  0.37884  1.0000
  N   N31       1.0  0.85481  0.69835  0.38970  1.0000
  N   N32       1.0  0.77408  0.79788  0.38281  1.0000
  C   C77       1.0  0.74924  0.33292  0.38939  1.0000
  C   C78       1.0  0.75099  0.29887  0.37746  1.0000
  C   C79       1.0  0.78753  0.28141  0.37118  1.0000
  C   C80       1.0  0.82539  0.29758  0.38428  1.0000
  C   C81       1.0  0.82608  0.33193  0.38792  1.0000
  C   C82       1.0  0.78851  0.34823  0.39557  1.0000
  H   H61       1.0  0.72495  0.28571  0.37084  1.0000
  N   N33       1.0  0.85906  0.28043  0.41203  1.0000
  C   C83       1.0  0.71075  0.34999  0.39043  1.0000
  C   C84       1.0  0.67134  0.33580  0.37448  1.0000
  C   C85       1.0  0.63421  0.35338  0.37382  1.0000
  C   C86       1.0  0.63637  0.38783  0.37448  1.0000
  C   C87       1.0  0.67433  0.40275  0.39318  1.0000
  C   C88       1.0  0.70956  0.38378  0.40646  1.0000
  N   N34       1.0  0.60323  0.40654  0.35349  1.0000
  H   H62       1.0  0.73548  0.39619  0.41978  1.0000
  H   H63       1.0  0.57860  0.39734  0.32796  1.0000
  H   H64       1.0  0.60457  0.43007  0.35186  1.0000
  H   H65       1.0  0.88292  0.29106  0.43645  1.0000
  H   H66       1.0  0.85664  0.25792  0.43158  1.0000
  H   H67       1.0  0.66849  0.31148  0.36700  1.0000
  N   N35       1.0  0.67746  0.43547  0.38665  1.0000
  N   N36       1.0  0.59756  0.33745  0.36713  1.0000
  N   N37       1.0  0.78405  0.24909  0.35652  1.0000
  C   C89       1.0  0.20328  0.70865  0.38935  1.0000
  C   C90       1.0  0.20134  0.74293  0.37713  1.0000
  C   C91       1.0  0.16470  0.76055  0.37077  1.0000
  C   C92       1.0  0.12706  0.74418  0.38400  1.0000
  C   C93       1.0  0.12641  0.70975  0.38779  1.0000
  C   C94       1.0  0.16410  0.69327  0.39561  1.0000
  H   H68       1.0  0.22727  0.75618  0.37035  1.0000
  N   N38       1.0  0.09399  0.76086  0.41169  1.0000
  C   C95       1.0  0.24175  0.69150  0.39048  1.0000
  C   C96       1.0  0.28089  0.70595  0.37463  1.0000
  C   C97       1.0  0.31797  0.68832  0.37417  1.0000
  C   C98       1.0  0.31573  0.65385  0.37483  1.0000
  C   C99       1.0  0.27808  0.63861  0.39326  1.0000
  C   C100      1.0  0.24317  0.65739  0.40656  1.0000
  N   N39       1.0  0.34845  0.63551  0.35408  1.0000
  H   H69       1.0  0.21746  0.64472  0.41942  1.0000
  H   H70       1.0  0.37258  0.64519  0.32854  1.0000
  H   H71       1.0  0.34692  0.61203  0.35225  1.0000
  H   H72       1.0  0.07078  0.74960  0.43652  1.0000
  H   H73       1.0  0.09682  0.78296  0.43116  1.0000
  H   H74       1.0  0.28366  0.73041  0.36715  1.0000
  N   N40       1.0  0.27466  0.60603  0.38647  1.0000
  N   N41       1.0  0.35452  0.70433  0.36741  1.0000
  N   N42       1.0  0.16795  0.79317  0.35601  1.0000
  C   C101      1.0  0.14842  0.18997  0.39672  1.0000
  C   C102      1.0  0.13818  0.16441  0.45743  1.0000
  C   C103      1.0  0.11854  0.13625  0.42786  1.0000
  H   H75       1.0  0.11068  0.11904  0.47535  1.0000
  H   H76       1.0  0.14472  0.16610  0.52482  1.0000
  C   C104      1.0  0.16208  0.21944  0.43294  1.0000
  H   H77       1.0  0.15348  0.22460  0.49677  1.0000
  C   C105      1.0  0.80416  0.85153  0.39646  1.0000
  C   C106      1.0  0.81526  0.87599  0.45702  1.0000
  C   C107      1.0  0.83442  0.90469  0.42741  1.0000
  H   H78       1.0  0.84286  0.92113  0.47469  1.0000
  H   H79       1.0  0.80974  0.87306  0.52430  1.0000
  C   C108      1.0  0.79106  0.82139  0.43273  1.0000
  H   H80       1.0  0.80051  0.81502  0.49694  1.0000
  C   C109      1.0  0.83244  0.12890  0.37853  1.0000
  C   C110      1.0  0.79891  0.14440  0.41705  1.0000
  C   C111      1.0  0.79007  0.17757  0.39592  1.0000
  C   C112      1.0  0.81460  0.19577  0.33543  1.0000
  N   N43       1.0  0.75812  0.19107  0.43741  1.0000
  C   C113      1.0  0.73430  0.17483  0.49670  1.0000
  C   C114      1.0  0.74288  0.14220  0.51716  1.0000
  N   N44       1.0  0.77468  0.12842  0.47692  1.0000
  H   H81       1.0  0.71075  0.18625  0.52575  1.0000
  H   H82       1.0  0.72581  0.12904  0.56165  1.0000
  C   C115      1.0  0.84124  0.09591  0.39706  1.0000
  H   H83       1.0  0.82282  0.08269  0.43847  1.0000
  C   C116      1.0  0.81119  0.22948  0.31842  1.0000
  C   C117      1.0  0.12003  0.91294  0.37806  1.0000
  C   C118      1.0  0.15433  0.89664  0.41657  1.0000
  C   C119      1.0  0.16275  0.86390  0.39540  1.0000
  C   C120      1.0  0.13704  0.84694  0.33484  1.0000
  N   N45       1.0  0.19552  0.84955  0.43688  1.0000
  C   C121      1.0  0.22051  0.86457  0.49624  1.0000
  C   C122      1.0  0.21233  0.89678  0.51675  1.0000
  N   N46       1.0  0.17973  0.91138  0.47650  1.0000
  H   H84       1.0  0.24463  0.85255  0.52528  1.0000
  H   H85       1.0  0.23028  0.90902  0.56127  1.0000
  C   C123      1.0  0.11159  0.94554  0.39666  1.0000
  H   H86       1.0  0.13083  0.95790  0.43808  1.0000
  C   C124      1.0  0.14008  0.81358  0.31789  1.0000
  C   C125      1.0  0.25068  0.55208  0.38939  1.0000
  C   C126      1.0  0.25030  0.52595  0.45266  1.0000
  C   C127      1.0  0.25365  0.49386  0.42476  1.0000
  H   H87       1.0  0.25377  0.47566  0.47302  1.0000
  H   H88       1.0  0.24996  0.53011  0.52020  1.0000
  C   C128      1.0  0.24805  0.58400  0.41919  1.0000
  H   H89       1.0  0.23666  0.58847  0.48106  1.0000
  C   C129      1.0  0.70177  0.48957  0.38975  1.0000
  C   C130      1.0  0.70443  0.51442  0.45292  1.0000
  C   C131      1.0  0.70080  0.54710  0.42512  1.0000
  H   H90       1.0  0.70221  0.56434  0.47330  1.0000
  H   H91       1.0  0.70662  0.50889  0.52042  1.0000
  C   C132      1.0  0.70434  0.45703  0.41975  1.0000
  H   H92       1.0  0.71782  0.45115  0.48071  1.0000
  C   C133      1.0  0.02365  0.34722  0.42039  1.0000
  C   C134      1.0  0.99333  0.34788  0.48706  1.0000
  C   C135      1.0  0.95105  0.35027  0.46360  1.0000
  C   C136      1.0  0.93752  0.34956  0.37239  1.0000
  N   N47       1.0  0.92416  0.34998  0.53184  1.0000
  C   C137      1.0  0.93521  0.34849  0.62015  1.0000
  C   C138      1.0  0.97659  0.34647  0.64327  1.0000
  N   N48       1.0  0.00376  0.34616  0.57627  1.0000
  C   C139      1.0  0.06473  0.33932  0.44249  1.0000
  H   H93       1.0  0.07010  0.32740  0.50285  1.0000
  C   C140      1.0  0.89639  0.34398  0.34550  1.0000
  C   C141      1.0  0.92950  0.69385  0.42074  1.0000
  C   C142      1.0  0.96118  0.69188  0.48734  1.0000
  C   C143      1.0  0.00297  0.68997  0.46379  1.0000
  C   C144      1.0  0.01466  0.69243  0.37255  1.0000
  N   N49       1.0  0.03125  0.68893  0.53198  1.0000
  C   C145      1.0  0.02201  0.68871  0.62032  1.0000
  C   C146      1.0  0.98110  0.69026  0.64351  1.0000
  N   N50       1.0  0.95257  0.69187  0.57657  1.0000
  C   C147      1.0  0.88886  0.70129  0.44288  1.0000
  H   H94       1.0  0.88469  0.71196  0.50326  1.0000
  C   C148      1.0  0.05523  0.69858  0.34557  1.0000
  C   C149      1.0  0.43508  0.33667  0.34731  1.0000
  C   C150      1.0  0.52190  0.33688  0.39026  1.0000
  C   C151      1.0  0.49197  0.33728  0.45755  1.0000
  C   C152      1.0  0.44989  0.33545  0.43729  1.0000
  H   H95       1.0  0.43016  0.33730  0.48904  1.0000
  H   H96       1.0  0.50069  0.33916  0.52373  1.0000
  C   C153      1.0  0.39340  0.34303  0.32674  1.0000
  C   C154      1.0  0.56323  0.34324  0.41427  1.0000
  H   H97       1.0  0.56813  0.35440  0.47428  1.0000
  C   C155      1.0  0.51661  0.70554  0.34751  1.0000
  C   C156      1.0  0.43065  0.70438  0.39052  1.0000
  C   C157      1.0  0.46191  0.70272  0.45783  1.0000
  C   C158      1.0  0.50357  0.70488  0.43748  1.0000
  H   H98       1.0  0.52438  0.70221  0.48924  1.0000
  H   H99       1.0  0.45452  0.69958  0.52404  1.0000
  C   C159      1.0  0.55789  0.69966  0.32693  1.0000
  C   C160      1.0  0.38978  0.69759  0.41457  1.0000
  H   H100      1.0  0.38606  0.68525  0.47465  1.0000
