data_image0
_chemical_formula_structural       HC8HC7HCH4C3H3C8HC7HCH4C4H4C4H2C2H2NC4H2C2H2NC4H2C2H2NC4H2C2H2NC4H2C2H2NC4H2C2H2NC8HC7HCH4C4H3CHC6H4NC6H4NC6H4NC6H4NC6H4NC6H4N
_chemical_formula_sum              "H78 C132 N12"
_cell_length_a       38.518
_cell_length_b       38.518
_cell_length_c       14.9771
_cell_angle_alpha    90.0002
_cell_angle_beta     89.9998
_cell_angle_gamma    120

_space_group_name_H-M_alt    "P 1"
_space_group_IT_number       1

loop_
  _space_group_symop_operation_xyz
  'x, y, z'

loop_
  _atom_site_type_symbol
  _atom_site_label
  _atom_site_symmetry_multiplicity
  _atom_site_fract_x
  _atom_site_fract_y
  _atom_site_fract_z
  _atom_site_occupancy
  H   H1        1.0  0.12095  0.52668  0.24895  1.0000
  C   C1        1.0  0.50973  0.54185  0.33286  1.0000
  C   C2        1.0  0.51336  0.50678  0.32916  1.0000
  C   C3        1.0  0.47836  0.46821  0.32559  1.0000
  C   C4        1.0  0.44040  0.46491  0.33514  1.0000
  C   C5        1.0  0.43625  0.49912  0.34328  1.0000
  C   C6        1.0  0.47090  0.53792  0.33781  1.0000
  C   C7        1.0  0.55217  0.51147  0.33114  1.0000
  C   C8        1.0  0.46825  0.57323  0.33843  1.0000
  H   H2        1.0  0.41520  0.43695  0.33577  1.0000
  C   C9        1.0  0.54492  0.58077  0.33280  1.0000
  C   C10       1.0  0.58376  0.58470  0.33767  1.0000
  C   C11       1.0  0.61842  0.62350  0.34300  1.0000
  C   C12       1.0  0.61426  0.65771  0.33491  1.0000
  C   C13       1.0  0.57630  0.65441  0.32537  1.0000
  C   C14       1.0  0.54130  0.61584  0.32907  1.0000
  C   C15       1.0  0.58641  0.54939  0.33832  1.0000
  H   H3        1.0  0.63946  0.68566  0.33550  1.0000
  C   C16       1.0  0.50248  0.61114  0.33109  1.0000
  H   H4        1.0  0.61351  0.55063  0.34163  1.0000
  H   H5        1.0  0.55614  0.48710  0.33142  1.0000
  H   H6        1.0  0.49852  0.63551  0.33141  1.0000
  H   H7        1.0  0.44115  0.57199  0.34180  1.0000
  C   C17       1.0  0.57483  0.68883  0.30599  1.0000
  C   C18       1.0  0.65601  0.62986  0.36551  1.0000
  C   C19       1.0  0.47981  0.43379  0.30613  1.0000
  H   H8        1.0  0.56201  0.68957  0.24885  1.0000
  H   H9        1.0  0.66555  0.63905  0.42730  1.0000
  H   H10       1.0  0.49258  0.43303  0.24891  1.0000
  C   C20       1.0  0.54681  0.06318  0.33290  1.0000
  C   C21       1.0  0.58188  0.10188  0.32917  1.0000
  C   C22       1.0  0.62045  0.10544  0.32548  1.0000
  C   C23       1.0  0.62375  0.07079  0.33508  1.0000
  C   C24       1.0  0.58954  0.03243  0.34326  1.0000
  C   C25       1.0  0.55074  0.02828  0.33783  1.0000
  C   C26       1.0  0.57718  0.13600  0.33118  1.0000
  C   C27       1.0  0.51543  0.99032  0.33849  1.0000
  H   H11       1.0  0.65170  0.07354  0.33567  1.0000
  C   C28       1.0  0.50789  0.05945  0.33290  1.0000
  C   C29       1.0  0.50395  0.09435  0.33783  1.0000
  C   C30       1.0  0.46515  0.09020  0.34326  1.0000
  C   C31       1.0  0.43095  0.05184  0.33506  1.0000
  C   C32       1.0  0.43425  0.01719  0.32546  1.0000
  C   C33       1.0  0.47282  0.02076  0.32914  1.0000
  C   C34       1.0  0.53926  0.13231  0.33851  1.0000
  H   H12       1.0  0.40299  0.04909  0.33566  1.0000
  C   C35       1.0  0.47751  0.98663  0.33114  1.0000
  H   H13       1.0  0.53803  0.15818  0.34179  1.0000
  H   H14       1.0  0.60155  0.16433  0.33146  1.0000
  H   H15       1.0  0.45314  0.95830  0.33145  1.0000
  H   H16       1.0  0.51666  0.96446  0.34181  1.0000
  C   C36       1.0  0.59590  0.00118  0.36570  1.0000
  C   C37       1.0  0.39983  0.98131  0.30603  1.0000
  C   C38       1.0  0.45880  0.12145  0.36570  1.0000
  C   C39       1.0  0.65486  0.14133  0.30605  1.0000
  H   H17       1.0  0.60515  0.00086  0.42743  1.0000
  H   H18       1.0  0.39909  0.96776  0.24886  1.0000
  H   H19       1.0  0.44963  0.12182  0.42750  1.0000
  H   H20       1.0  0.65560  0.15490  0.24893  1.0000
  C   C40       1.0  0.34168  0.49726  0.31918  1.0000
  C   C41       1.0  0.26735  0.49706  0.33063  1.0000
  C   C42       1.0  0.29369  0.51509  0.25751  1.0000
  C   C43       1.0  0.33023  0.51518  0.25196  1.0000
  H   H21       1.0  0.28703  0.52935  0.20848  1.0000
  H   H22       1.0  0.34885  0.52918  0.19894  1.0000
  C   C44       1.0  0.16907  0.48972  0.26905  1.0000
  C   C45       1.0  0.20515  0.48901  0.26253  1.0000
  H   H23       1.0  0.15111  0.48276  0.21392  1.0000
  H   H24       1.0  0.21224  0.48135  0.20261  1.0000
  N   N1        1.0  0.37739  0.49990  0.31060  1.0000
  C   C46       1.0  0.59136  0.93969  0.31922  1.0000
  C   C47       1.0  0.59156  0.86555  0.33064  1.0000
  C   C48       1.0  0.57355  0.87388  0.25751  1.0000
  C   C49       1.0  0.57346  0.91032  0.25198  1.0000
  H   H25       1.0  0.55932  0.85298  0.20843  1.0000
  H   H26       1.0  0.55947  0.91496  0.19893  1.0000
  C   C50       1.0  0.59895  0.77465  0.26902  1.0000
  C   C51       1.0  0.59965  0.81143  0.26251  1.0000
  H   H27       1.0  0.60594  0.76367  0.21389  1.0000
  H   H28       1.0  0.60733  0.82621  0.20262  1.0000
  N   N2        1.0  0.58868  0.97273  0.31069  1.0000
  C   C52       1.0  0.14895  0.74698  0.31917  1.0000
  C   C53       1.0  0.22311  0.82129  0.33063  1.0000
  C   C54       1.0  0.21478  0.79494  0.25751  1.0000
  C   C55       1.0  0.17832  0.75842  0.25196  1.0000
  H   H29       1.0  0.23568  0.80161  0.20844  1.0000
  H   H30       1.0  0.17367  0.73981  0.19890  1.0000
  C   C56       1.0  0.31402  0.91958  0.26904  1.0000
  C   C57       1.0  0.27725  0.88349  0.26251  1.0000
  H   H31       1.0  0.32501  0.93755  0.21391  1.0000
  H   H32       1.0  0.26247  0.87640  0.20262  1.0000
  N   N3        1.0  0.11587  0.71127  0.31061  1.0000
  C   C58       1.0  0.71298  0.62534  0.31911  1.0000
  C   C59       1.0  0.78734  0.62558  0.33060  1.0000
  C   C60       1.0  0.76101  0.60755  0.25746  1.0000
  C   C61       1.0  0.72446  0.60743  0.25190  1.0000
  H   H33       1.0  0.76770  0.59333  0.20840  1.0000
  H   H34       1.0  0.70586  0.59346  0.19882  1.0000
  C   C62       1.0  0.88564  0.63296  0.26909  1.0000
  C   C63       1.0  0.84957  0.63368  0.26255  1.0000
  H   H35       1.0  0.90361  0.63993  0.21397  1.0000
  H   H36       1.0  0.84247  0.64134  0.20263  1.0000
  N   N4        1.0  0.67727  0.62267  0.31051  1.0000
  C   C64       1.0  0.46330  0.18292  0.31921  1.0000
  C   C65       1.0  0.46307  0.25704  0.33064  1.0000
  C   C66       1.0  0.48109  0.24873  0.25751  1.0000
  C   C67       1.0  0.48120  0.21229  0.25198  1.0000
  H   H37       1.0  0.49534  0.26965  0.20847  1.0000
  H   H38       1.0  0.49520  0.20767  0.19894  1.0000
  C   C68       1.0  0.45570  0.34797  0.26910  1.0000
  C   C69       1.0  0.45500  0.31119  0.26257  1.0000
  H   H39       1.0  0.44873  0.35897  0.21398  1.0000
  H   H40       1.0  0.44732  0.29642  0.20266  1.0000
  N   N5        1.0  0.46598  0.14988  0.31066  1.0000
  C   C70       1.0  0.90572  0.37567  0.31907  1.0000
  C   C71       1.0  0.83159  0.30134  0.33056  1.0000
  C   C72       1.0  0.83990  0.32767  0.25741  1.0000
  C   C73       1.0  0.87635  0.36420  0.25184  1.0000
  H   H41       1.0  0.81899  0.32098  0.20835  1.0000
  H   H42       1.0  0.88097  0.38281  0.19878  1.0000
  C   C74       1.0  0.74067  0.20303  0.26902  1.0000
  C   C75       1.0  0.77746  0.23912  0.26248  1.0000
  H   H43       1.0  0.72969  0.18506  0.21390  1.0000
  H   H44       1.0  0.79222  0.24621  0.20258  1.0000
  N   N6        1.0  0.93877  0.41139  0.31049  1.0000
  C   C76       1.0  0.02549  0.57893  0.33297  1.0000
  C   C77       1.0  0.98679  0.57530  0.32924  1.0000
  C   C78       1.0  0.98322  0.61030  0.32557  1.0000
  C   C79       1.0  0.01787  0.64826  0.33513  1.0000
  C   C80       1.0  0.05623  0.65242  0.34330  1.0000
  C   C81       1.0  0.06038  0.61776  0.33791  1.0000
  C   C82       1.0  0.95267  0.53648  0.33126  1.0000
  C   C83       1.0  0.09834  0.62042  0.33855  1.0000
  H   H45       1.0  0.01512  0.67346  0.33570  1.0000
  C   C84       1.0  0.02922  0.54374  0.33293  1.0000
  C   C85       1.0  0.99433  0.50491  0.33773  1.0000
  C   C86       1.0  0.99845  0.47024  0.34298  1.0000
  C   C87       1.0  0.03683  0.47441  0.33494  1.0000
  C   C88       1.0  0.07149  0.51238  0.32548  1.0000
  C   C89       1.0  0.06792  0.54737  0.32922  1.0000
  C   C90       1.0  0.95636  0.50225  0.33841  1.0000
  H   H46       1.0  0.03959  0.44921  0.33547  1.0000
  C   C91       1.0  0.10204  0.58619  0.33132  1.0000
  H   H47       1.0  0.93049  0.47514  0.34153  1.0000
  H   H48       1.0  0.92434  0.53252  0.33134  1.0000
  H   H49       1.0  0.13037  0.59015  0.33152  1.0000
  H   H50       1.0  0.12421  0.64752  0.34188  1.0000
  C   C92       1.0  0.08748  0.69002  0.36571  1.0000
  C   C93       1.0  0.10738  0.51385  0.30608  1.0000
  C   C94       1.0  0.96723  0.43264  0.36547  1.0000
  C   C95       1.0  0.94734  0.60883  0.30613  1.0000
  H   H51       1.0  0.08793  0.69951  0.42761  1.0000
  H   H52       1.0  0.96690  0.42309  0.42724  1.0000
  H   H53       1.0  0.93381  0.59606  0.24893  1.0000
  C   C96       1.0  0.39865  0.49277  0.36570  1.0000
  H   H54       1.0  0.38917  0.48374  0.42761  1.0000
  C   C97       1.0  0.31514  0.47858  0.39160  1.0000
  C   C98       1.0  0.27870  0.47860  0.39725  1.0000
  C   C99       1.0  0.23062  0.49764  0.33740  1.0000
  C   C100      1.0  0.21844  0.50670  0.41925  1.0000
  C   C101      1.0  0.18232  0.50736  0.42590  1.0000
  C   C102      1.0  0.15751  0.49947  0.35063  1.0000
  H   H55       1.0  0.23617  0.51365  0.47481  1.0000
  H   H56       1.0  0.17457  0.51433  0.48590  1.0000
  H   H57       1.0  0.32198  0.46477  0.44118  1.0000
  H   H58       1.0  0.26025  0.46449  0.45040  1.0000
  N   N7        1.0  0.12358  0.50024  0.36037  1.0000
  C   C103      1.0  0.61000  0.93180  0.39169  1.0000
  C   C104      1.0  0.60999  0.89534  0.39731  1.0000
  C   C105      1.0  0.59100  0.82826  0.33739  1.0000
  C   C106      1.0  0.58190  0.80698  0.41921  1.0000
  C   C107      1.0  0.58128  0.77022  0.42586  1.0000
  C   C108      1.0  0.58921  0.75334  0.35059  1.0000
  H   H59       1.0  0.57495  0.81776  0.47478  1.0000
  H   H60       1.0  0.57430  0.75549  0.48583  1.0000
  H   H61       1.0  0.62377  0.95243  0.44133  1.0000
  H   H62       1.0  0.62408  0.89099  0.45049  1.0000
  N   N8        1.0  0.58843  0.71863  0.36030  1.0000
  C   C109      1.0  0.15683  0.77351  0.39163  1.0000
  C   C110      1.0  0.19330  0.80995  0.39727  1.0000
  C   C111      1.0  0.26041  0.85801  0.33739  1.0000
  C   C112      1.0  0.28168  0.87018  0.41921  1.0000
  C   C113      1.0  0.31845  0.90631  0.42586  1.0000
  C   C114      1.0  0.33533  0.93114  0.35061  1.0000
  H   H63       1.0  0.27089  0.85246  0.47478  1.0000
  H   H64       1.0  0.33316  0.91407  0.48586  1.0000
  H   H65       1.0  0.13620  0.76667  0.44123  1.0000
  H   H66       1.0  0.19767  0.82839  0.45045  1.0000
  N   N9        1.0  0.37003  0.96508  0.36035  1.0000
  C   C115      1.0  0.73951  0.64401  0.39156  1.0000
  C   C116      1.0  0.77596  0.64401  0.39724  1.0000
  C   C117      1.0  0.82407  0.62502  0.33740  1.0000
  C   C118      1.0  0.83624  0.61593  0.41925  1.0000
  C   C119      1.0  0.87236  0.61528  0.42592  1.0000
  C   C120      1.0  0.89718  0.62319  0.35067  1.0000
  H   H67       1.0  0.81849  0.60897  0.47479  1.0000
  H   H68       1.0  0.88010  0.60830  0.48591  1.0000
  H   H69       1.0  0.73264  0.65778  0.44117  1.0000
  H   H70       1.0  0.79439  0.65810  0.45041  1.0000
  N   N10       1.0  0.93111  0.62241  0.36044  1.0000
  C   C121      1.0  0.44463  0.19078  0.39164  1.0000
  C   C122      1.0  0.44462  0.22724  0.39728  1.0000
  C   C123      1.0  0.46364  0.29434  0.33743  1.0000
  C   C124      1.0  0.47272  0.31559  0.41927  1.0000
  C   C125      1.0  0.47337  0.35237  0.42594  1.0000
  C   C126      1.0  0.46547  0.36928  0.35069  1.0000
  H   H71       1.0  0.47969  0.30482  0.47482  1.0000
  H   H72       1.0  0.48036  0.36709  0.48593  1.0000
  H   H73       1.0  0.43084  0.17015  0.44125  1.0000
  H   H74       1.0  0.43053  0.23159  0.45045  1.0000
  N   N11       1.0  0.46625  0.40399  0.36044  1.0000
  C   C127      1.0  0.89785  0.34916  0.39155  1.0000
  C   C128      1.0  0.86139  0.31272  0.39722  1.0000
  C   C129      1.0  0.79429  0.26461  0.33735  1.0000
  C   C130      1.0  0.77303  0.25244  0.41918  1.0000
  C   C131      1.0  0.73627  0.21630  0.42586  1.0000
  C   C132      1.0  0.71938  0.19148  0.35061  1.0000
  H   H75       1.0  0.78381  0.27017  0.47474  1.0000
  H   H76       1.0  0.72155  0.20855  0.48585  1.0000
  H   H77       1.0  0.91848  0.35602  0.44117  1.0000
  H   H78       1.0  0.85704  0.29428  0.45040  1.0000
  N   N12       1.0  0.68468  0.15754  0.36035  1.0000
