data_image0
_chemical_formula_structural       C3NC3NC5NC5NC20H18N4C3NC3NC5NC5NC20H18N4C3NC3NC5NC5NC20H18N4C3NC3NC5NC5NC20H18N4C3NC3NC5NC5NC20H18N4C3NC3NC5NC5NC20H18N4C3H2CHC3H2CHC3H2CHC3H2CHC3H2CHC3H2CHC3H2CHC3H2CHC3H2CHC3H2CHC3H2CHC3H2CHC8H8C8H8C8H8C8H8C8H8C8H8C3NC2NHOHCHC3NC2NHOHCHC3NC2NHOHCHC3NC2NHOHCHC3NC2NHOHCHC3NC2NHOHCHC3NC2NHOHCHC3NC2NHOHCHC3NC2NHOHCHC3NC2NHOHCHC3NC2NHOHCHC3NC2NHOHCH
_chemical_formula_sum              "C384 N72 H228 O12"
_cell_length_a       69.3562
_cell_length_b       69.3562
_cell_length_c       14.875
_cell_angle_alpha    90.0046
_cell_angle_beta     89.91
_cell_angle_gamma    120

_space_group_name_H-M_alt    "P 1"
_space_group_IT_number       1

loop_
  _space_group_symop_operation_xyz
  'x, y, z'

loop_
  _atom_site_type_symbol
  _atom_site_label
  _atom_site_symmetry_multiplicity
  _atom_site_fract_x
  _atom_site_fract_y
  _atom_site_fract_z
  _atom_site_occupancy
  C   C1        1.0  0.21339  0.37824  0.32189  1.0000
  C   C2        1.0  0.23329  0.37811  0.32442  1.0000
  C   C3        1.0  0.25079  0.40012  0.32633  1.0000
  N   N1        1.0  0.24074  0.41268  0.32542  1.0000
  C   C4        1.0  0.21813  0.40033  0.32274  1.0000
  C   C5        1.0  0.20187  0.40723  0.32064  1.0000
  C   C6        1.0  0.20709  0.42989  0.32104  1.0000
  N   N2        1.0  0.22741  0.44849  0.32137  1.0000
  C   C7        1.0  0.22608  0.46732  0.32085  1.0000
  C   C8        1.0  0.20341  0.46038  0.32026  1.0000
  C   C9        1.0  0.19175  0.43740  0.32111  1.0000
  C   C10       1.0  0.24376  0.48976  0.32064  1.0000
  C   C11       1.0  0.26676  0.49633  0.32325  1.0000
  N   N3        1.0  0.27664  0.48368  0.32401  1.0000
  C   C12       1.0  0.29917  0.49608  0.32731  1.0000
  C   C13       1.0  0.30402  0.51822  0.32857  1.0000
  C   C14       1.0  0.28423  0.51836  0.32659  1.0000
  C   C15       1.0  0.31538  0.48922  0.32903  1.0000
  C   C16       1.0  0.31036  0.46670  0.32872  1.0000
  N   N4        1.0  0.29008  0.44805  0.32801  1.0000
  C   C17       1.0  0.29152  0.42930  0.32887  1.0000
  C   C18       1.0  0.31430  0.43650  0.32986  1.0000
  C   C19       1.0  0.32588  0.45949  0.33001  1.0000
  C   C20       1.0  0.27387  0.40676  0.32864  1.0000
  C   C21       1.0  0.28019  0.38996  0.33119  1.0000
  C   C22       1.0  0.29973  0.36195  0.33479  1.0000
  C   C23       1.0  0.29331  0.36746  0.25263  1.0000
  C   C24       1.0  0.28382  0.38133  0.25082  1.0000
  C   C25       1.0  0.33825  0.50629  0.33180  1.0000
  C   C26       1.0  0.38184  0.54440  0.33525  1.0000
  C   C27       1.0  0.37193  0.53382  0.25302  1.0000
  C   C28       1.0  0.35037  0.51505  0.25128  1.0000
  C   C29       1.0  0.23825  0.50706  0.31811  1.0000
  C   C30       1.0  0.24090  0.51903  0.23772  1.0000
  C   C31       1.0  0.23862  0.53810  0.23766  1.0000
  C   C32       1.0  0.23323  0.54544  0.31730  1.0000
  C   C33       1.0  0.17866  0.39062  0.31732  1.0000
  C   C34       1.0  0.16635  0.38691  0.23708  1.0000
  C   C35       1.0  0.13108  0.36310  0.31613  1.0000
  C   C36       1.0  0.14295  0.37353  0.23681  1.0000
  H   H1        1.0  0.13452  0.37191  0.17829  1.0000
  H   H2        1.0  0.17428  0.39488  0.17904  1.0000
  H   H3        1.0  0.19802  0.36426  0.31969  1.0000
  H   H4        1.0  0.23452  0.36403  0.32428  1.0000
  H   H5        1.0  0.24881  0.42866  0.32690  1.0000
  H   H6        1.0  0.26858  0.46771  0.32147  1.0000
  H   H7        1.0  0.17478  0.42796  0.32165  1.0000
  H   H8        1.0  0.19628  0.47019  0.32001  1.0000
  H   H9        1.0  0.24551  0.51453  0.17951  1.0000
  H   H10       1.0  0.24135  0.54686  0.17911  1.0000
  H   H11       1.0  0.28314  0.53252  0.32787  1.0000
  H   H12       1.0  0.31936  0.53224  0.33111  1.0000
  H   H13       1.0  0.32161  0.42686  0.33043  1.0000
  H   H14       1.0  0.34284  0.46914  0.33089  1.0000
  H   H15       1.0  0.34328  0.50828  0.19058  1.0000
  H   H16       1.0  0.37994  0.54011  0.19333  1.0000
  H   H17       1.0  0.28030  0.38575  0.19001  1.0000
  H   H18       1.0  0.29616  0.36204  0.19289  1.0000
  N   N5        1.0  0.40157  0.56296  0.34225  1.0000
  N   N6        1.0  0.23293  0.56450  0.31403  1.0000
  N   N7        1.0  0.10877  0.35217  0.31279  1.0000
  N   N8        1.0  0.30995  0.34993  0.34222  1.0000
  C   C37       1.0  0.69289  0.83725  0.32296  1.0000
  C   C38       1.0  0.69302  0.85727  0.32544  1.0000
  C   C39       1.0  0.67101  0.85276  0.32729  1.0000
  N   N9        1.0  0.65845  0.83016  0.32647  1.0000
  C   C40       1.0  0.67080  0.81989  0.32386  1.0000
  C   C41       1.0  0.66390  0.79673  0.32181  1.0000
  C   C42       1.0  0.64124  0.77929  0.32223  1.0000
  N   N10       1.0  0.62264  0.78101  0.32253  1.0000
  C   C43       1.0  0.60382  0.76085  0.32206  1.0000
  C   C44       1.0  0.61076  0.74512  0.32152  1.0000
  C   C45       1.0  0.63374  0.75644  0.32237  1.0000
  C   C46       1.0  0.58137  0.75608  0.32183  1.0000
  C   C47       1.0  0.57480  0.77252  0.32430  1.0000
  N   N11       1.0  0.58745  0.79505  0.32502  1.0000
  C   C48       1.0  0.57505  0.80518  0.32824  1.0000
  C   C49       1.0  0.55291  0.78789  0.32947  1.0000
  C   C50       1.0  0.55276  0.76795  0.32753  1.0000
  C   C51       1.0  0.58190  0.82825  0.32989  1.0000
  C   C52       1.0  0.60442  0.84575  0.32956  1.0000
  N   N12       1.0  0.62308  0.84412  0.32891  1.0000
  C   C53       1.0  0.64182  0.86431  0.32969  1.0000
  C   C54       1.0  0.63462  0.87989  0.33059  1.0000
  C   C55       1.0  0.61163  0.86847  0.33075  1.0000
  C   C56       1.0  0.66437  0.86921  0.32949  1.0000
  C   C57       1.0  0.68116  0.89233  0.33193  1.0000
  C   C58       1.0  0.70919  0.93986  0.33529  1.0000
  C   C59       1.0  0.70373  0.92791  0.25320  1.0000
  C   C60       1.0  0.68987  0.90455  0.25151  1.0000
  C   C61       1.0  0.56483  0.83404  0.33250  1.0000
  C   C62       1.0  0.52673  0.83955  0.33574  1.0000
  C   C63       1.0  0.53737  0.84018  0.25356  1.0000
  C   C64       1.0  0.55614  0.83740  0.25194  1.0000
  C   C65       1.0  0.56407  0.73327  0.31931  1.0000
  C   C66       1.0  0.55216  0.72395  0.23890  1.0000
  C   C67       1.0  0.53309  0.70260  0.23885  1.0000
  C   C68       1.0  0.52568  0.68988  0.31851  1.0000
  C   C69       1.0  0.68052  0.79014  0.31850  1.0000
  C   C70       1.0  0.68429  0.78155  0.23824  1.0000
  C   C71       1.0  0.70806  0.77010  0.31728  1.0000
  C   C72       1.0  0.69765  0.77150  0.23800  1.0000
  H   H19       1.0  0.69931  0.76470  0.17947  1.0000
  H   H20       1.0  0.67633  0.78147  0.18023  1.0000
  H   H21       1.0  0.70687  0.83585  0.32077  1.0000
  H   H22       1.0  0.70710  0.87259  0.32519  1.0000
  H   H23       1.0  0.64246  0.82224  0.32792  1.0000
  H   H24       1.0  0.60343  0.80296  0.32269  1.0000
  H   H25       1.0  0.64318  0.74891  0.32298  1.0000
  H   H26       1.0  0.60094  0.72818  0.32137  1.0000
  H   H27       1.0  0.55670  0.73305  0.18069  1.0000
  H   H28       1.0  0.52437  0.69656  0.18030  1.0000
  H   H29       1.0  0.53861  0.75271  0.32887  1.0000
  H   H30       1.0  0.53888  0.78920  0.33195  1.0000
  H   H31       1.0  0.64426  0.89684  0.33108  1.0000
  H   H32       1.0  0.60198  0.87578  0.33156  1.0000
  H   H33       1.0  0.56295  0.83706  0.19127  1.0000
  H   H34       1.0  0.53112  0.84189  0.19383  1.0000
  H   H35       1.0  0.68549  0.89657  0.19074  1.0000
  H   H36       1.0  0.70922  0.93615  0.19343  1.0000
  N   N13       1.0  0.50815  0.84069  0.34262  1.0000
  N   N14       1.0  0.50664  0.67052  0.31525  1.0000
  N   N15       1.0  0.71897  0.75869  0.31393  1.0000
  N   N16       1.0  0.72122  0.96211  0.34260  1.0000
  C   C73       1.0  0.23389  0.85773  0.32103  1.0000
  C   C74       1.0  0.21387  0.83784  0.32349  1.0000
  C   C75       1.0  0.21837  0.82034  0.32541  1.0000
  N   N17       1.0  0.24098  0.83038  0.32467  1.0000
  C   C76       1.0  0.25125  0.85300  0.32205  1.0000
  C   C77       1.0  0.27441  0.86926  0.32011  1.0000
  C   C78       1.0  0.29185  0.86404  0.32063  1.0000
  N   N18       1.0  0.29013  0.84372  0.32089  1.0000
  C   C79       1.0  0.31029  0.84505  0.32055  1.0000
  C   C80       1.0  0.32602  0.86772  0.32016  1.0000
  C   C81       1.0  0.31469  0.87938  0.32092  1.0000
  C   C82       1.0  0.31505  0.82737  0.32031  1.0000
  C   C83       1.0  0.29861  0.80437  0.32263  1.0000
  N   N19       1.0  0.27608  0.79449  0.32326  1.0000
  C   C84       1.0  0.26595  0.77195  0.32641  1.0000
  C   C85       1.0  0.28323  0.76710  0.32766  1.0000
  C   C86       1.0  0.30317  0.78689  0.32581  1.0000
  C   C87       1.0  0.24287  0.75574  0.32803  1.0000
  C   C88       1.0  0.22538  0.76076  0.32771  1.0000
  N   N20       1.0  0.22701  0.78104  0.32702  1.0000
  C   C89       1.0  0.20682  0.77960  0.32780  1.0000
  C   C90       1.0  0.19124  0.75682  0.32871  1.0000
  C   C91       1.0  0.20265  0.74524  0.32887  1.0000
  C   C92       1.0  0.20192  0.79725  0.32759  1.0000
  C   C93       1.0  0.17880  0.79093  0.33004  1.0000
  C   C94       1.0  0.13126  0.77142  0.33365  1.0000
  C   C95       1.0  0.14323  0.77785  0.25149  1.0000
  C   C96       1.0  0.16660  0.78736  0.24968  1.0000
  C   C97       1.0  0.23708  0.73287  0.33070  1.0000
  C   C98       1.0  0.23156  0.68926  0.33410  1.0000
  C   C99       1.0  0.23100  0.69926  0.25187  1.0000
  C   C100      1.0  0.23377  0.72081  0.25016  1.0000
  C   C101      1.0  0.33786  0.83288  0.31798  1.0000
  C   C102      1.0  0.34729  0.83031  0.23770  1.0000
  C   C103      1.0  0.36865  0.83262  0.23786  1.0000
  C   C104      1.0  0.38126  0.83789  0.31767  1.0000
  C   C105      1.0  0.28100  0.89247  0.31685  1.0000
  C   C106      1.0  0.28970  0.90485  0.23668  1.0000
  C   C107      1.0  0.30103  0.94005  0.31581  1.0000
  C   C108      1.0  0.29972  0.92826  0.23651  1.0000
  H   H37       1.0  0.30657  0.93673  0.17802  1.0000
  H   H38       1.0  0.28981  0.89698  0.17863  1.0000
  H   H39       1.0  0.23529  0.87311  0.31878  1.0000
  H   H40       1.0  0.19855  0.83660  0.32311  1.0000
  H   H41       1.0  0.24889  0.82232  0.32624  1.0000
  H   H42       1.0  0.26817  0.80255  0.32097  1.0000
  H   H43       1.0  0.32223  0.89635  0.32158  1.0000
  H   H44       1.0  0.34296  0.87485  0.32007  1.0000
  H   H45       1.0  0.33829  0.82583  0.17933  1.0000
  H   H46       1.0  0.37477  0.82997  0.17935  1.0000
  H   H47       1.0  0.31842  0.78798  0.32721  1.0000
  H   H48       1.0  0.28192  0.75176  0.33011  1.0000
  H   H49       1.0  0.17428  0.74951  0.32919  1.0000
  H   H50       1.0  0.19534  0.72828  0.32969  1.0000
  H   H51       1.0  0.23419  0.72797  0.18946  1.0000
  H   H52       1.0  0.22935  0.69130  0.19217  1.0000
  H   H53       1.0  0.17459  0.79091  0.18887  1.0000
  H   H54       1.0  0.13501  0.77505  0.19175  1.0000
  N   N21       1.0  0.23039  0.66953  0.34109  1.0000
  N   N22       1.0  0.40062  0.83820  0.31463  1.0000
  N   N23       1.0  0.31243  0.96236  0.31256  1.0000
  N   N24       1.0  0.10901  0.76118  0.34109  1.0000
  C   C109      1.0  0.88005  0.67056  0.32266  1.0000
  C   C110      1.0  0.86016  0.67070  0.32532  1.0000
  C   C111      1.0  0.84265  0.64868  0.32743  1.0000
  N   N25       1.0  0.85270  0.63612  0.32659  1.0000
  C   C112      1.0  0.87531  0.64847  0.32374  1.0000
  C   C113      1.0  0.89157  0.64157  0.32161  1.0000
  C   C114      1.0  0.88635  0.61891  0.32217  1.0000
  N   N26       1.0  0.86604  0.60031  0.32268  1.0000
  C   C115      1.0  0.86737  0.58149  0.32227  1.0000
  C   C116      1.0  0.89003  0.58842  0.32159  1.0000
  C   C117      1.0  0.90169  0.61141  0.32225  1.0000
  C   C118      1.0  0.84969  0.55904  0.32223  1.0000
  C   C119      1.0  0.82668  0.55248  0.32488  1.0000
  N   N27       1.0  0.81680  0.56513  0.32561  1.0000
  C   C120      1.0  0.79427  0.55273  0.32898  1.0000
  C   C121      1.0  0.78941  0.53059  0.33032  1.0000
  C   C122      1.0  0.80921  0.53044  0.32824  1.0000
  C   C123      1.0  0.77805  0.55959  0.33072  1.0000
  C   C124      1.0  0.78308  0.58211  0.33033  1.0000
  N   N28       1.0  0.80336  0.60076  0.32948  1.0000
  C   C125      1.0  0.80192  0.61951  0.33023  1.0000
  C   C126      1.0  0.77914  0.61230  0.33130  1.0000
  C   C127      1.0  0.76756  0.58932  0.33158  1.0000
  C   C128      1.0  0.81956  0.64205  0.32984  1.0000
  C   C129      1.0  0.81325  0.65885  0.33223  1.0000
  C   C130      1.0  0.79373  0.68687  0.33568  1.0000
  C   C131      1.0  0.80020  0.68137  0.25356  1.0000
  C   C132      1.0  0.80972  0.66752  0.25184  1.0000
  C   C133      1.0  0.75519  0.54251  0.33355  1.0000
  C   C134      1.0  0.71159  0.50441  0.33709  1.0000
  C   C135      1.0  0.72156  0.51502  0.25484  1.0000
  C   C136      1.0  0.74313  0.53378  0.25306  1.0000
  C   C137      1.0  0.85519  0.54174  0.31972  1.0000
  C   C138      1.0  0.85259  0.52978  0.23938  1.0000
  C   C139      1.0  0.85488  0.51072  0.23940  1.0000
  C   C140      1.0  0.86018  0.50334  0.31909  1.0000
  C   C141      1.0  0.91478  0.65819  0.31804  1.0000
  C   C142      1.0  0.92712  0.66187  0.23773  1.0000
  C   C143      1.0  0.96237  0.68570  0.31643  1.0000
  C   C144      1.0  0.95053  0.67525  0.23726  1.0000
  H   H55       1.0  0.95898  0.67686  0.17866  1.0000
  H   H56       1.0  0.91921  0.65390  0.17978  1.0000
  H   H57       1.0  0.89543  0.68454  0.32024  1.0000
  H   H58       1.0  0.85892  0.68477  0.32494  1.0000
  H   H59       1.0  0.84463  0.62014  0.32828  1.0000
  H   H60       1.0  0.82487  0.58110  0.32313  1.0000
  H   H61       1.0  0.91867  0.62084  0.32269  1.0000
  H   H62       1.0  0.89716  0.57861  0.32138  1.0000
  H   H63       1.0  0.84806  0.53432  0.18113  1.0000
  H   H64       1.0  0.85221  0.50197  0.18087  1.0000
  H   H65       1.0  0.81030  0.51629  0.32964  1.0000
  H   H66       1.0  0.77408  0.51656  0.33292  1.0000
  H   H67       1.0  0.77183  0.62195  0.33179  1.0000
  H   H68       1.0  0.75060  0.57966  0.33252  1.0000
  H   H69       1.0  0.75027  0.54057  0.19234  1.0000
  H   H70       1.0  0.71361  0.50873  0.19515  1.0000
  H   H71       1.0  0.81327  0.66309  0.19104  1.0000
  H   H72       1.0  0.79742  0.68681  0.19379  1.0000
  N   N29       1.0  0.69186  0.48584  0.34412  1.0000
  N   N30       1.0  0.86050  0.48430  0.31590  1.0000
  N   N31       1.0  0.98468  0.69662  0.31287  1.0000
  N   N32       1.0  0.78349  0.69888  0.34302  1.0000
  C   C145      1.0  0.40057  0.21157  0.32327  1.0000
  C   C146      1.0  0.40043  0.19155  0.32574  1.0000
  C   C147      1.0  0.42244  0.19605  0.32787  1.0000
  N   N33       1.0  0.43500  0.21866  0.32717  1.0000
  C   C148      1.0  0.42266  0.22893  0.32440  1.0000
  C   C149      1.0  0.42956  0.25209  0.32244  1.0000
  C   C150      1.0  0.45222  0.26953  0.32311  1.0000
  N   N34       1.0  0.47081  0.26781  0.32363  1.0000
  C   C151      1.0  0.48964  0.28796  0.32332  1.0000
  C   C152      1.0  0.48270  0.30369  0.32271  1.0000
  C   C153      1.0  0.45972  0.29237  0.32331  1.0000
  C   C154      1.0  0.51209  0.29273  0.32332  1.0000
  C   C155      1.0  0.51865  0.27629  0.32594  1.0000
  N   N35       1.0  0.50600  0.25376  0.32658  1.0000
  C   C156      1.0  0.51840  0.24363  0.32986  1.0000
  C   C157      1.0  0.54053  0.26091  0.33128  1.0000
  C   C158      1.0  0.54068  0.28085  0.32938  1.0000
  C   C159      1.0  0.51154  0.22055  0.33141  1.0000
  C   C160      1.0  0.48901  0.20305  0.33086  1.0000
  N   N36       1.0  0.47036  0.20468  0.33002  1.0000
  C   C161      1.0  0.45162  0.18449  0.33062  1.0000
  C   C162      1.0  0.45882  0.16892  0.33158  1.0000
  C   C163      1.0  0.48180  0.18033  0.33197  1.0000
  C   C164      1.0  0.42907  0.17960  0.33016  1.0000
  C   C165      1.0  0.41227  0.15648  0.33240  1.0000
  C   C166      1.0  0.38425  0.10894  0.33537  1.0000
  C   C167      1.0  0.38982  0.12096  0.25337  1.0000
  C   C168      1.0  0.40370  0.14432  0.25188  1.0000
  C   C169      1.0  0.52861  0.21475  0.33412  1.0000
  C   C170      1.0  0.56671  0.20926  0.33744  1.0000
  C   C171      1.0  0.55614  0.20864  0.25524  1.0000
  C   C172      1.0  0.53737  0.21142  0.25357  1.0000
  C   C173      1.0  0.52939  0.31553  0.32089  1.0000
  C   C174      1.0  0.54140  0.32490  0.24055  1.0000
  C   C175      1.0  0.56046  0.34625  0.24058  1.0000
  C   C176      1.0  0.56777  0.35893  0.32027  1.0000
  C   C177      1.0  0.41295  0.25868  0.31892  1.0000
  C   C178      1.0  0.40932  0.26735  0.23863  1.0000
  C   C179      1.0  0.38543  0.27875  0.31740  1.0000
  C   C180      1.0  0.39593  0.27737  0.23820  1.0000
  H   H73       1.0  0.39437  0.28422  0.17964  1.0000
  H   H74       1.0  0.41734  0.26743  0.18068  1.0000
  H   H75       1.0  0.38659  0.21298  0.32095  1.0000
  H   H76       1.0  0.38635  0.17623  0.32541  1.0000
  H   H77       1.0  0.45098  0.22657  0.32881  1.0000
  H   H78       1.0  0.49003  0.24585  0.32395  1.0000
  H   H79       1.0  0.45029  0.29991  0.32377  1.0000
  H   H80       1.0  0.49252  0.32064  0.32259  1.0000
  H   H81       1.0  0.53692  0.31583  0.18231  1.0000
  H   H82       1.0  0.56925  0.35232  0.18206  1.0000
  H   H83       1.0  0.55484  0.29610  0.33075  1.0000
  H   H84       1.0  0.55456  0.25960  0.33383  1.0000
  H   H85       1.0  0.44917  0.15196  0.33196  1.0000
  H   H86       1.0  0.49146  0.17302  0.33287  1.0000
  H   H87       1.0  0.53061  0.21179  0.19289  1.0000
  H   H88       1.0  0.56244  0.20695  0.19552  1.0000
  H   H89       1.0  0.40817  0.15234  0.19117  1.0000
  H   H90       1.0  0.38445  0.11277  0.19353  1.0000
  N   N37       1.0  0.58527  0.20809  0.34436  1.0000
  N   N38       1.0  0.58682  0.37830  0.31707  1.0000
  N   N39       1.0  0.37451  0.29014  0.31390  1.0000
  N   N40       1.0  0.37222  0.08668  0.34251  1.0000
  C   C181      1.0  0.85957  0.19108  0.32249  1.0000
  C   C182      1.0  0.87959  0.21097  0.32493  1.0000
  C   C183      1.0  0.87508  0.22847  0.32688  1.0000
  N   N41       1.0  0.85247  0.21843  0.32614  1.0000
  C   C184      1.0  0.84221  0.19582  0.32350  1.0000
  C   C185      1.0  0.81905  0.17955  0.32155  1.0000
  C   C186      1.0  0.80161  0.18477  0.32214  1.0000
  N   N42       1.0  0.80332  0.20508  0.32254  1.0000
  C   C187      1.0  0.78317  0.20375  0.32225  1.0000
  C   C188      1.0  0.76744  0.18108  0.32174  1.0000
  C   C189      1.0  0.77877  0.16943  0.32241  1.0000
  C   C190      1.0  0.77840  0.22143  0.32216  1.0000
  C   C191      1.0  0.79484  0.24444  0.32456  1.0000
  N   N43       1.0  0.81736  0.25432  0.32512  1.0000
  C   C192      1.0  0.82749  0.27685  0.32834  1.0000
  C   C193      1.0  0.81021  0.28170  0.32973  1.0000
  C   C194      1.0  0.79027  0.26191  0.32789  1.0000
  C   C195      1.0  0.85057  0.29306  0.32988  1.0000
  C   C196      1.0  0.86807  0.28804  0.32940  1.0000
  N   N44       1.0  0.86644  0.26776  0.32869  1.0000
  C   C197      1.0  0.88663  0.26921  0.32936  1.0000
  C   C198      1.0  0.90220  0.29199  0.33024  1.0000
  C   C199      1.0  0.89079  0.30356  0.33051  1.0000
  C   C200      1.0  0.89153  0.25156  0.32908  1.0000
  C   C201      1.0  0.91465  0.25788  0.33148  1.0000
  C   C202      1.0  0.96218  0.27740  0.33475  1.0000
  C   C203      1.0  0.95024  0.27094  0.25268  1.0000
  C   C204      1.0  0.92688  0.26143  0.25103  1.0000
  C   C205      1.0  0.85636  0.31593  0.33257  1.0000
  C   C206      1.0  0.86187  0.35954  0.33603  1.0000
  C   C207      1.0  0.86249  0.34958  0.25377  1.0000
  C   C208      1.0  0.85971  0.32802  0.25205  1.0000
  C   C209      1.0  0.75559  0.21592  0.31988  1.0000
  C   C210      1.0  0.74623  0.21852  0.23959  1.0000
  C   C211      1.0  0.72488  0.21624  0.23977  1.0000
  C   C212      1.0  0.71220  0.21091  0.31957  1.0000
  C   C213      1.0  0.81246  0.15635  0.31817  1.0000
  C   C214      1.0  0.80386  0.14403  0.23792  1.0000
  C   C215      1.0  0.79243  0.10876  0.31687  1.0000
  C   C216      1.0  0.79382  0.12062  0.23765  1.0000
  H   H91       1.0  0.78702  0.11218  0.17912  1.0000
  H   H92       1.0  0.80378  0.15194  0.17995  1.0000
  H   H93       1.0  0.85817  0.17570  0.32026  1.0000
  H   H94       1.0  0.89491  0.21221  0.32461  1.0000
  H   H95       1.0  0.84456  0.22649  0.32766  1.0000
  H   H96       1.0  0.82528  0.24625  0.32270  1.0000
  H   H97       1.0  0.77123  0.15245  0.32300  1.0000
  H   H98       1.0  0.75049  0.17395  0.32171  1.0000
  H   H99       1.0  0.75531  0.22309  0.18128  1.0000
  H   H100      1.0  0.71882  0.21894  0.18130  1.0000
  H   H101      1.0  0.77502  0.26081  0.32936  1.0000
  H   H102      1.0  0.81152  0.29704  0.33226  1.0000
  H   H103      1.0  0.91916  0.29930  0.33066  1.0000
  H   H104      1.0  0.89810  0.32052  0.33133  1.0000
  H   H105      1.0  0.85935  0.32090  0.19134  1.0000
  H   H106      1.0  0.86419  0.35756  0.19408  1.0000
  H   H107      1.0  0.91891  0.25787  0.19028  1.0000
  H   H108      1.0  0.95849  0.27371  0.19289  1.0000
  N   N45       1.0  0.86302  0.37926  0.34303  1.0000
  N   N46       1.0  0.69283  0.21060  0.31653  1.0000
  N   N47       1.0  0.78102  0.08645  0.31351  1.0000
  N   N48       1.0  0.98443  0.28761  0.34202  1.0000
  C   C217      1.0  0.22534  0.63377  0.31015  1.0000
  C   C218      1.0  0.22579  0.62025  0.23989  1.0000
  C   C219      1.0  0.22513  0.60003  0.25730  1.0000
  H   H109      1.0  0.22482  0.59065  0.20356  1.0000
  H   H110      1.0  0.22624  0.62483  0.17410  1.0000
  C   C220      1.0  0.22505  0.65320  0.28669  1.0000
  H   H111      1.0  0.22053  0.65450  0.22458  1.0000
  C   C221      1.0  0.43736  0.59366  0.31136  1.0000
  C   C222      1.0  0.45093  0.60763  0.24111  1.0000
  C   C223      1.0  0.47114  0.62718  0.25853  1.0000
  H   H112      1.0  0.48055  0.63627  0.20478  1.0000
  H   H113      1.0  0.44639  0.60350  0.17532  1.0000
  C   C224      1.0  0.41795  0.57393  0.28789  1.0000
  H   H114      1.0  0.41671  0.56811  0.22581  1.0000
  C   C225      1.0  0.47749  0.84581  0.31151  1.0000
  C   C226      1.0  0.46361  0.84543  0.24113  1.0000
  C   C227      1.0  0.44403  0.84606  0.25838  1.0000
  H   H115      1.0  0.43501  0.84641  0.20455  1.0000
  H   H116      1.0  0.46782  0.84504  0.17537  1.0000
  C   C228      1.0  0.49726  0.84615  0.28822  1.0000
  H   H117      1.0  0.50319  0.85081  0.22627  1.0000
  C   C229      1.0  0.86812  0.41504  0.31211  1.0000
  C   C230      1.0  0.86772  0.42858  0.24185  1.0000
  C   C231      1.0  0.86836  0.44879  0.25925  1.0000
  H   H118      1.0  0.86870  0.45819  0.20549  1.0000
  H   H119      1.0  0.86733  0.42403  0.17606  1.0000
  C   C232      1.0  0.86845  0.39563  0.28867  1.0000
  H   H120      1.0  0.87307  0.39438  0.22663  1.0000
  C   C233      1.0  0.65609  0.45516  0.31327  1.0000
  C   C234      1.0  0.64258  0.44123  0.24301  1.0000
  C   C235      1.0  0.62236  0.42166  0.26043  1.0000
  H   H121      1.0  0.61299  0.41261  0.20668  1.0000
  H   H122      1.0  0.64717  0.44540  0.17722  1.0000
  C   C236      1.0  0.67551  0.47491  0.28981  1.0000
  H   H123      1.0  0.67678  0.48079  0.22780  1.0000
  C   C237      1.0  0.61597  0.20300  0.31328  1.0000
  C   C238      1.0  0.62992  0.20342  0.24292  1.0000
  C   C239      1.0  0.64948  0.20276  0.26021  1.0000
  H   H124      1.0  0.65856  0.20246  0.20640  1.0000
  H   H125      1.0  0.62578  0.20384  0.17716  1.0000
  C   C240      1.0  0.59624  0.20269  0.28994  1.0000
  H   H126      1.0  0.59040  0.19812  0.22790  1.0000
  C   C241      1.0  0.02344  0.30475  0.30995  1.0000
  C   C242      1.0  0.03949  0.31328  0.24006  1.0000
  C   C243      1.0  0.06248  0.32391  0.25734  1.0000
  H   H127      1.0  0.07314  0.32910  0.20350  1.0000
  H   H128      1.0  0.03455  0.31153  0.17427  1.0000
  C   C244      1.0  0.00071  0.29372  0.28614  1.0000
  H   H129      1.0  0.99686  0.29051  0.22147  1.0000
  C   C245      1.0  0.76637  0.72076  0.31102  1.0000
  C   C246      1.0  0.75789  0.72828  0.24115  1.0000
  C   C247      1.0  0.74725  0.74065  0.25845  1.0000
  H   H130      1.0  0.74210  0.74612  0.20462  1.0000
  H   H131      1.0  0.75968  0.72510  0.17535  1.0000
  C   C248      1.0  0.77743  0.70908  0.28719  1.0000
  H   H132      1.0  0.78071  0.70847  0.22251  1.0000
  C   C249      1.0  0.35038  0.04770  0.31018  1.0000
  C   C250      1.0  0.34291  0.03172  0.24019  1.0000
  C   C251      1.0  0.33052  0.00871  0.25733  1.0000
  H   H133      1.0  0.32508  0.99811  0.20343  1.0000
  H   H134      1.0  0.34615  0.03673  0.17443  1.0000
  C   C252      1.0  0.36211  0.07046  0.28652  1.0000
  H   H135      1.0  0.36283  0.07437  0.22186  1.0000
  C   C253      1.0  0.07001  0.74404  0.30930  1.0000
  C   C254      1.0  0.05399  0.73551  0.23955  1.0000
  C   C255      1.0  0.03099  0.72488  0.25700  1.0000
  H   H136      1.0  0.02036  0.71969  0.20325  1.0000
  H   H137      1.0  0.05896  0.73726  0.17372  1.0000
  C   C256      1.0  0.09275  0.75508  0.28533  1.0000
  H   H138      1.0  0.09663  0.75831  0.22062  1.0000
  C   C257      1.0  0.32710  0.32806  0.31041  1.0000
  C   C258      1.0  0.33568  0.32057  0.24064  1.0000
  C   C259      1.0  0.34629  0.30819  0.25808  1.0000
  H   H139      1.0  0.35152  0.30275  0.20432  1.0000
  H   H140      1.0  0.33398  0.32380  0.17482  1.0000
  C   C260      1.0  0.31608  0.33977  0.28645  1.0000
  H   H141      1.0  0.31290  0.34042  0.22175  1.0000
  C   C261      1.0  0.74309  0.00112  0.31055  1.0000
  C   C262      1.0  0.75062  0.01715  0.24068  1.0000
  C   C263      1.0  0.76299  0.04015  0.25797  1.0000
  H   H142      1.0  0.76847  0.05080  0.20414  1.0000
  H   H143      1.0  0.74744  0.01220  0.17488  1.0000
  C   C264      1.0  0.73138  0.97838  0.28673  1.0000
  H   H144      1.0  0.73073  0.97453  0.22203  1.0000
  C   C265      1.0  0.28623  0.38418  0.41337  1.0000
  C   C266      1.0  0.29577  0.37036  0.41497  1.0000
  C   C267      1.0  0.34823  0.51662  0.41409  1.0000
  C   C268      1.0  0.36974  0.53545  0.41557  1.0000
  C   C269      1.0  0.23030  0.53329  0.39752  1.0000
  C   C270      1.0  0.23285  0.51437  0.39799  1.0000
  C   C271      1.0  0.16684  0.38006  0.39675  1.0000
  C   C272      1.0  0.14344  0.36643  0.39607  1.0000
  H   H145      1.0  0.13539  0.35988  0.45553  1.0000
  H   H146      1.0  0.17512  0.38303  0.45660  1.0000
  H   H147      1.0  0.23154  0.50644  0.45765  1.0000
  H   H148      1.0  0.22721  0.53865  0.45697  1.0000
  H   H149      1.0  0.33958  0.51099  0.47314  1.0000
  H   H150      1.0  0.37632  0.54291  0.47597  1.0000
  H   H151      1.0  0.30046  0.36701  0.47554  1.0000
  H   H152      1.0  0.28450  0.39070  0.47255  1.0000
  C   C273      1.0  0.68690  0.90417  0.41408  1.0000
  C   C274      1.0  0.70070  0.92753  0.41553  1.0000
  C   C275      1.0  0.55444  0.83372  0.41474  1.0000
  C   C276      1.0  0.53561  0.83639  0.41611  1.0000
  C   C277      1.0  0.53780  0.69910  0.39872  1.0000
  C   C278      1.0  0.55672  0.72057  0.39918  1.0000
  C   C279      1.0  0.69103  0.78888  0.39792  1.0000
  C   C280      1.0  0.70466  0.77911  0.39724  1.0000
  H   H153      1.0  0.71117  0.77761  0.45669  1.0000
  H   H154      1.0  0.68801  0.79418  0.45779  1.0000
  H   H155      1.0  0.56459  0.72719  0.45887  1.0000
  H   H156      1.0  0.53237  0.69066  0.45818  1.0000
  H   H157      1.0  0.55999  0.83066  0.47382  1.0000
  H   H158      1.0  0.52808  0.83550  0.47647  1.0000
  H   H159      1.0  0.70404  0.93560  0.47605  1.0000
  H   H160      1.0  0.68032  0.89594  0.47327  1.0000
  C   C281      1.0  0.16693  0.78485  0.41225  1.0000
  C   C282      1.0  0.14358  0.77531  0.41383  1.0000
  C   C283      1.0  0.23734  0.72282  0.41299  1.0000
  C   C284      1.0  0.23463  0.70130  0.41445  1.0000
  C   C285      1.0  0.37193  0.84075  0.39779  1.0000
  C   C286      1.0  0.35045  0.83818  0.39802  1.0000
  C   C287      1.0  0.28216  0.90421  0.39630  1.0000
  C   C288      1.0  0.29197  0.92762  0.39571  1.0000
  H   H161      1.0  0.29336  0.93562  0.45515  1.0000
  H   H162      1.0  0.27681  0.89589  0.45611  1.0000
  H   H163      1.0  0.34375  0.83941  0.45763  1.0000
  H   H164      1.0  0.38027  0.84371  0.45738  1.0000
  H   H165      1.0  0.24030  0.73142  0.47207  1.0000
  H   H166      1.0  0.23546  0.69467  0.47484  1.0000
  H   H167      1.0  0.13549  0.77060  0.47441  1.0000
  H   H168      1.0  0.17514  0.78654  0.47143  1.0000
  C   C289      1.0  0.80714  0.66461  0.41439  1.0000
  C   C290      1.0  0.79760  0.67843  0.41591  1.0000
  C   C291      1.0  0.74515  0.53216  0.41585  1.0000
  C   C292      1.0  0.72364  0.51333  0.41738  1.0000
  C   C293      1.0  0.86310  0.51552  0.39923  1.0000
  C   C294      1.0  0.86056  0.53444  0.39962  1.0000
  C   C295      1.0  0.92658  0.66874  0.39735  1.0000
  C   C296      1.0  0.94998  0.68236  0.39647  1.0000
  H   H169      1.0  0.95801  0.68894  0.45583  1.0000
  H   H170      1.0  0.91828  0.66580  0.45725  1.0000
  H   H171      1.0  0.86179  0.54233  0.45927  1.0000
  H   H172      1.0  0.86609  0.51011  0.45874  1.0000
  H   H173      1.0  0.75375  0.53777  0.47490  1.0000
  H   H174      1.0  0.71700  0.50585  0.47779  1.0000
  H   H175      1.0  0.79285  0.68177  0.47644  1.0000
  H   H176      1.0  0.80880  0.65806  0.47361  1.0000
  C   C297      1.0  0.40642  0.14456  0.41444  1.0000
  C   C298      1.0  0.39261  0.12120  0.41572  1.0000
  C   C299      1.0  0.53892  0.21505  0.41638  1.0000
  C   C300      1.0  0.55775  0.21238  0.41779  1.0000
  C   C301      1.0  0.55557  0.34966  0.40043  1.0000
  C   C302      1.0  0.53666  0.32819  0.40081  1.0000
  C   C303      1.0  0.40232  0.25989  0.39823  1.0000
  C   C304      1.0  0.38870  0.26967  0.39738  1.0000
  H   H177      1.0  0.38209  0.27113  0.45676  1.0000
  H   H178      1.0  0.40523  0.25454  0.45812  1.0000
  H   H179      1.0  0.52870  0.32154  0.46044  1.0000
  H   H180      1.0  0.56091  0.35808  0.45991  1.0000
  H   H181      1.0  0.53329  0.21806  0.47545  1.0000
  H   H182      1.0  0.56521  0.21322  0.47817  1.0000
  H   H183      1.0  0.38920  0.11308  0.47619  1.0000
  H   H184      1.0  0.41290  0.15274  0.47373  1.0000
  C   C305      1.0  0.92648  0.26396  0.41359  1.0000
  C   C306      1.0  0.94984  0.27352  0.41500  1.0000
  C   C307      1.0  0.85604  0.32595  0.41488  1.0000
  C   C308      1.0  0.85872  0.34746  0.41635  1.0000
  C   C309      1.0  0.72145  0.20801  0.39966  1.0000
  C   C310      1.0  0.74291  0.21055  0.39989  1.0000
  C   C311      1.0  0.81121  0.14454  0.39755  1.0000
  C   C312      1.0  0.80144  0.12114  0.39683  1.0000
  H   H185      1.0  0.79995  0.11310  0.45625  1.0000
  H   H186      1.0  0.81651  0.15282  0.45742  1.0000
  H   H187      1.0  0.74956  0.20929  0.45950  1.0000
  H   H188      1.0  0.71303  0.20498  0.45923  1.0000
  H   H189      1.0  0.85300  0.31731  0.47393  1.0000
  H   H190      1.0  0.85784  0.35406  0.47676  1.0000
  H   H191      1.0  0.95790  0.27822  0.47552  1.0000
  H   H192      1.0  0.91824  0.26229  0.47281  1.0000
  C   C313      1.0  0.22417  0.59239  0.34620  1.0000
  C   C314      1.0  0.22419  0.60586  0.41876  1.0000
  C   C315      1.0  0.22463  0.62631  0.39987  1.0000
  N   N49       1.0  0.22407  0.63842  0.47082  1.0000
  C   C316      1.0  0.22343  0.63251  0.55780  1.0000
  C   C317      1.0  0.22343  0.61274  0.57685  1.0000
  N   N50       1.0  0.22383  0.60015  0.50754  1.0000
  H   H193      1.0  0.22311  0.64241  0.60796  1.0000
  O   O1        1.0  0.22302  0.60641  0.66320  1.0000
  H   H194      1.0  0.22407  0.58670  0.52371  1.0000
  C   C318      1.0  0.22182  0.57143  0.35976  1.0000
  H   H195      1.0  0.21091  0.56144  0.40540  1.0000
  C   C319      1.0  0.47872  0.63387  0.34743  1.0000
  C   C320      1.0  0.46521  0.62041  0.41998  1.0000
  C   C321      1.0  0.44478  0.60040  0.40108  1.0000
  N   N51       1.0  0.43263  0.58773  0.47201  1.0000
  C   C322      1.0  0.43848  0.59299  0.55900  1.0000
  C   C323      1.0  0.45824  0.61277  0.57806  1.0000
  N   N52       1.0  0.47086  0.62575  0.50876  1.0000
  H   H196      1.0  0.42855  0.58277  0.60916  1.0000
  O   O2        1.0  0.46452  0.61868  0.66442  1.0000
  H   H197      1.0  0.48431  0.63945  0.52494  1.0000
  C   C324      1.0  0.49967  0.65248  0.36098  1.0000
  H   H198      1.0  0.50964  0.65157  0.40660  1.0000
  C   C325      1.0  0.43723  0.84693  0.34722  1.0000
  C   C326      1.0  0.45060  0.84684  0.41990  1.0000
  C   C327      1.0  0.47064  0.84644  0.40116  1.0000
  N   N53       1.0  0.48322  0.84694  0.47221  1.0000
  C   C328      1.0  0.47785  0.84749  0.55916  1.0000
  C   C329      1.0  0.45805  0.84746  0.57804  1.0000
  N   N54       1.0  0.44515  0.84712  0.50863  1.0000
  H   H199      1.0  0.48801  0.84777  0.60940  1.0000
  O   O3        1.0  0.45202  0.84778  0.66436  1.0000
  H   H200      1.0  0.43142  0.84685  0.52470  1.0000
  C   C330      1.0  0.41859  0.84924  0.36063  1.0000
  H   H201      1.0  0.41944  0.86010  0.40631  1.0000
  C   C331      1.0  0.86924  0.45640  0.34813  1.0000
  C   C332      1.0  0.86917  0.44291  0.42071  1.0000
  C   C333      1.0  0.86876  0.42247  0.40182  1.0000
  N   N55       1.0  0.86927  0.41035  0.47277  1.0000
  C   C334      1.0  0.86984  0.41622  0.55976  1.0000
  C   C335      1.0  0.86980  0.43598  0.57880  1.0000
  N   N56       1.0  0.86946  0.44858  0.50948  1.0000
  H   H202      1.0  0.87011  0.40630  0.60992  1.0000
  O   O4        1.0  0.87013  0.44228  0.66514  1.0000
  H   H203      1.0  0.86919  0.46203  0.52565  1.0000
  C   C336      1.0  0.87156  0.47735  0.36169  1.0000
  H   H204      1.0  0.88243  0.48733  0.40731  1.0000
  C   C337      1.0  0.61471  0.41492  0.34932  1.0000
  C   C338      1.0  0.62816  0.42835  0.42188  1.0000
  C   C339      1.0  0.64861  0.44838  0.40298  1.0000
  N   N57       1.0  0.66069  0.46102  0.47393  1.0000
  C   C340      1.0  0.65477  0.45571  0.56091  1.0000
  C   C341      1.0  0.63500  0.43592  0.57997  1.0000
  N   N58       1.0  0.62244  0.42296  0.51066  1.0000
  H   H205      1.0  0.66465  0.46591  0.61107  1.0000
  O   O5        1.0  0.62866  0.42996  0.66633  1.0000
  H   H206      1.0  0.60898  0.40925  0.52684  1.0000
  C   C342      1.0  0.59375  0.39631  0.36287  1.0000
  H   H207      1.0  0.58375  0.39719  0.40854  1.0000
  C   C343      1.0  0.65619  0.20186  0.34906  1.0000
  C   C344      1.0  0.64276  0.20191  0.42171  1.0000
  C   C345      1.0  0.62273  0.20233  0.40294  1.0000
  N   N59       1.0  0.61008  0.20180  0.47397  1.0000
  C   C346      1.0  0.61537  0.20120  0.56093  1.0000
  C   C347      1.0  0.63515  0.20123  0.57984  1.0000
  N   N60       1.0  0.64812  0.20159  0.51045  1.0000
  H   H208      1.0  0.60516  0.20090  0.61115  1.0000
  O   O6        1.0  0.64109  0.20086  0.66616  1.0000
  H   H209      1.0  0.66183  0.20185  0.52654  1.0000
  C   C348      1.0  0.67482  0.19954  0.36251  1.0000
  H   H210      1.0  0.67392  0.18866  0.40816  1.0000
  C   C349      1.0  0.07083  0.32680  0.34597  1.0000
  C   C350      1.0  0.05512  0.31882  0.41827  1.0000
  C   C351      1.0  0.03172  0.30781  0.39941  1.0000
  N   N61       1.0  0.01739  0.30008  0.47031  1.0000
  C   C352      1.0  0.02378  0.30230  0.55722  1.0000
  C   C353      1.0  0.04660  0.31339  0.57629  1.0000
  N   N62       1.0  0.06141  0.32125  0.50707  1.0000
  H   H211      1.0  0.01214  0.29617  0.60733  1.0000
  O   O7        1.0  0.05361  0.31615  0.66263  1.0000
  H   H212      1.0  0.07706  0.32913  0.52343  1.0000
  C   C354      1.0  0.09377  0.33588  0.35946  1.0000
  H   H213      1.0  0.09870  0.32909  0.40633  1.0000
  C   C355      1.0  0.74428  0.74609  0.34709  1.0000
  C   C356      1.0  0.75223  0.73837  0.41937  1.0000
  C   C357      1.0  0.76326  0.72598  0.40050  1.0000
  N   N63       1.0  0.77094  0.71938  0.47137  1.0000
  C   C358      1.0  0.76866  0.72355  0.55829  1.0000
  C   C359      1.0  0.75757  0.73528  0.57738  1.0000
  N   N64       1.0  0.74974  0.74222  0.50818  1.0000
  H   H214      1.0  0.77478  0.71805  0.60839  1.0000
  O   O8        1.0  0.75475  0.73953  0.66373  1.0000
  H   H215      1.0  0.74186  0.75000  0.52456  1.0000
  C   C360      1.0  0.73523  0.75997  0.36058  1.0000
  H   H216      1.0  0.74199  0.77169  0.40749  1.0000
  C   C361      1.0  0.32499  0.00028  0.34591  1.0000
  C   C362      1.0  0.33266  0.01591  0.41831  1.0000
  C   C363      1.0  0.34508  0.03932  0.39960  1.0000
  N   N65       1.0  0.35164  0.05359  0.47058  1.0000
  C   C364      1.0  0.34740  0.04711  0.55746  1.0000
  C   C365      1.0  0.33564  0.02427  0.57639  1.0000
  N   N66       1.0  0.32874  0.00953  0.50707  1.0000
  H   H217      1.0  0.35287  0.05870  0.60764  1.0000
  O   O9        1.0  0.33131  0.01717  0.66268  1.0000
  H   H218      1.0  0.32093  0.99386  0.52333  1.0000
  C   C366      1.0  0.31110  0.97733  0.35926  1.0000
  H   H219      1.0  0.29934  0.97236  0.40610  1.0000
  C   C367      1.0  0.02261  0.72199  0.34569  1.0000
  C   C368      1.0  0.03829  0.72998  0.41786  1.0000
  C   C369      1.0  0.06169  0.74098  0.39884  1.0000
  N   N67       1.0  0.07600  0.74871  0.46961  1.0000
  C   C370      1.0  0.06958  0.74649  0.55657  1.0000
  C   C371      1.0  0.04675  0.73541  0.57582  1.0000
  N   N68       1.0  0.03197  0.72754  0.50672  1.0000
  H   H220      1.0  0.08119  0.75263  0.60659  1.0000
  O   O10       1.0  0.03970  0.73265  0.66221  1.0000
  H   H221      1.0  0.01631  0.71967  0.52320  1.0000
  C   C372      1.0  0.99967  0.71292  0.35935  1.0000
  H   H222      1.0  0.99472  0.71971  0.40624  1.0000
  C   C373      1.0  0.34912  0.30270  0.34676  1.0000
  C   C374      1.0  0.34109  0.31039  0.41894  1.0000
  C   C375      1.0  0.33010  0.32279  0.39993  1.0000
  N   N69       1.0  0.32233  0.32938  0.47072  1.0000
  C   C376      1.0  0.32449  0.32517  0.55767  1.0000
  C   C377      1.0  0.33556  0.31342  0.57690  1.0000
  N   N70       1.0  0.34347  0.30651  0.50778  1.0000
  H   H223      1.0  0.31832  0.33064  0.60770  1.0000
  O   O11       1.0  0.33826  0.30912  0.66328  1.0000
  H   H224      1.0  0.35132  0.29871  0.52426  1.0000
  C   C378      1.0  0.35819  0.28883  0.36040  1.0000
  H   H225      1.0  0.35136  0.27709  0.40727  1.0000
  C   C379      1.0  0.76843  0.04852  0.34660  1.0000
  C   C380      1.0  0.76070  0.03282  0.41888  1.0000
  C   C381      1.0  0.74830  0.00942  0.40002  1.0000
  N   N71       1.0  0.74168  0.99510  0.47090  1.0000
  C   C382      1.0  0.74584  0.00151  0.55781  1.0000
  C   C383      1.0  0.75757  0.02433  0.57690  1.0000
  N   N72       1.0  0.76453  0.03912  0.50769  1.0000
  H   H226      1.0  0.74032  0.98988  0.60793  1.0000
  O   O12       1.0  0.76181  0.03136  0.66324  1.0000
  H   H227      1.0  0.77232  0.05479  0.52406  1.0000
  C   C384      1.0  0.78230  0.07145  0.36011  1.0000
  H   H228      1.0  0.79403  0.07638  0.40694  1.0000
