data_image0
_chemical_formula_structural       H3CH3CH2C3HCH3NC3HCH3NC2HCH3C2HCH3C3HCH3NC3HCH3NC2HCH3C2HCH3C2HCH3C2HCH3C6H3C6H3C4H2C6H3C6H3C4H4C6H3C6H3C4H4C6H2C6H3C3H2C6H2C6H3C3H2C3HCH3NC3HCH3NC4HCH3N2C4HCH3N2C3HCH3NC3HCH3NC4HCH3N2C4HCH3N2C4HCH3N2C4HCH3N2
_chemical_formula_sum              "H130 C160 N20"
_cell_length_a       33.3079
_cell_length_b       41.5917
_cell_length_c       14.7571
_cell_angle_alpha    88.6256
_cell_angle_beta     91.0737
_cell_angle_gamma    89.7084

_space_group_name_H-M_alt    "P 1"
_space_group_IT_number       1

loop_
  _space_group_symop_operation_xyz
  'x, y, z'

loop_
  _atom_site_type_symbol
  _atom_site_label
  _atom_site_symmetry_multiplicity
  _atom_site_fract_x
  _atom_site_fract_y
  _atom_site_fract_z
  _atom_site_occupancy
  H   H1        1.0  0.04226  0.10754  0.33938  1.0000
  H   H2        1.0  0.90129  0.92874  0.33928  1.0000
  H   H3        1.0  0.78017  0.36378  0.32829  1.0000
  C   C1        1.0  0.85674  0.34948  0.35544  1.0000
  H   H4        1.0  0.85370  0.36809  0.30921  1.0000
  H   H5        1.0  0.59998  0.29025  0.36658  1.0000
  H   H6        1.0  0.16319  0.67274  0.32828  1.0000
  C   C2        1.0  0.08709  0.68657  0.35556  1.0000
  H   H7        1.0  0.08935  0.66881  0.30917  1.0000
  H   H8        1.0  0.34404  0.74559  0.36669  1.0000
  C   C3        1.0  0.11810  0.13241  0.33198  1.0000
  C   C4        1.0  0.09955  0.15738  0.27784  1.0000
  C   C5        1.0  0.11789  0.18803  0.27260  1.0000
  H   H9        1.0  0.10357  0.20524  0.23375  1.0000
  C   C6        1.0  0.06322  0.15241  0.21941  1.0000
  H   H10       1.0  0.06383  0.12866  0.18963  1.0000
  H   H11       1.0  0.06108  0.16977  0.16278  1.0000
  H   H12       1.0  0.03624  0.15509  0.25934  1.0000
  N   N1        1.0  0.10259  0.10254  0.35138  1.0000
  C   C7        1.0  0.82532  0.90402  0.33204  1.0000
  C   C8        1.0  0.84292  0.87998  0.27780  1.0000
  C   C9        1.0  0.82450  0.84942  0.27260  1.0000
  H   H13       1.0  0.83815  0.83288  0.23369  1.0000
  C   C10       1.0  0.87825  0.88596  0.21926  1.0000
  H   H14       1.0  0.87712  0.91023  0.18953  1.0000
  H   H15       1.0  0.87939  0.86958  0.16260  1.0000
  H   H16       1.0  0.90592  0.88258  0.25910  1.0000
  N   N2        1.0  0.84117  0.93355  0.35142  1.0000
  C   C11       1.0  0.78395  0.15824  0.39038  1.0000
  C   C12       1.0  0.80189  0.12709  0.38767  1.0000
  H   H17       1.0  0.78425  0.10780  0.37270  1.0000
  C   C13       1.0  0.74004  0.16063  0.37079  1.0000
  H   H18       1.0  0.72832  0.18508  0.37436  1.0000
  H   H19       1.0  0.72385  0.14569  0.41958  1.0000
  H   H20       1.0  0.73356  0.15208  0.30270  1.0000
  C   C14       1.0  0.16047  0.87717  0.39028  1.0000
  C   C15       1.0  0.14249  0.90837  0.38760  1.0000
  H   H21       1.0  0.15989  0.92792  0.37270  1.0000
  C   C16       1.0  0.20407  0.87512  0.37080  1.0000
  H   H22       1.0  0.21584  0.85060  0.37435  1.0000
  H   H23       1.0  0.22105  0.88921  0.41967  1.0000
  H   H24       1.0  0.20945  0.88485  0.30276  1.0000
  C   C17       1.0  0.25745  0.48799  0.38425  1.0000
  C   C18       1.0  0.22235  0.50681  0.36563  1.0000
  C   C19       1.0  0.22447  0.54095  0.36713  1.0000
  H   H25       1.0  0.19911  0.55406  0.35052  1.0000
  C   C20       1.0  0.18295  0.49231  0.34136  1.0000
  H   H26       1.0  0.18367  0.46610  0.34165  1.0000
  H   H27       1.0  0.17344  0.50070  0.27361  1.0000
  H   H28       1.0  0.16045  0.49963  0.38972  1.0000
  N   N3        1.0  0.25671  0.45503  0.37918  1.0000
  C   C21       1.0  0.68686  0.54754  0.38429  1.0000
  C   C22       1.0  0.72166  0.52903  0.36567  1.0000
  C   C23       1.0  0.71956  0.49487  0.36717  1.0000
  H   H29       1.0  0.74465  0.48205  0.35061  1.0000
  C   C24       1.0  0.76065  0.54395  0.34144  1.0000
  H   H30       1.0  0.75994  0.57016  0.34173  1.0000
  H   H31       1.0  0.76904  0.53672  0.27369  1.0000
  H   H32       1.0  0.78396  0.53580  0.38981  1.0000
  N   N4        1.0  0.68752  0.58058  0.37922  1.0000
  C   C25       1.0  0.95185  0.34984  0.29058  1.0000
  C   C26       1.0  0.99437  0.34966  0.28763  1.0000
  H   H33       1.0  0.00780  0.35016  0.22559  1.0000
  C   C27       1.0  0.93002  0.34855  0.20186  1.0000
  H   H34       1.0  0.89807  0.34426  0.20763  1.0000
  H   H35       1.0  0.94205  0.32906  0.16190  1.0000
  H   H36       1.0  0.93404  0.37121  0.16442  1.0000
  C   C28       1.0  0.99091  0.68735  0.29072  1.0000
  C   C29       1.0  0.94833  0.68758  0.28782  1.0000
  H   H37       1.0  0.93386  0.68819  0.22578  1.0000
  C   C30       1.0  0.01124  0.69024  0.20201  1.0000
  H   H38       1.0  0.04328  0.69444  0.20780  1.0000
  H   H39       1.0  0.99852  0.71044  0.16220  1.0000
  H   H40       1.0  0.00662  0.66825  0.16442  1.0000
  C   C31       1.0  0.49233  0.30234  0.36743  1.0000
  C   C32       1.0  0.45017  0.30802  0.37048  1.0000
  H   H41       1.0  0.43093  0.28901  0.36556  1.0000
  C   C33       1.0  0.50587  0.26863  0.35680  1.0000
  H   H42       1.0  0.53827  0.26620  0.35361  1.0000
  H   H43       1.0  0.49303  0.25917  0.29432  1.0000
  H   H44       1.0  0.49575  0.25385  0.41400  1.0000
  C   C34       1.0  0.45170  0.73348  0.36754  1.0000
  C   C35       1.0  0.49391  0.72775  0.37058  1.0000
  H   H45       1.0  0.51307  0.74685  0.36573  1.0000
  C   C36       1.0  0.43799  0.76737  0.35701  1.0000
  H   H46       1.0  0.40554  0.76986  0.35384  1.0000
  H   H47       1.0  0.44978  0.77793  0.29456  1.0000
  H   H48       1.0  0.44907  0.78115  0.41425  1.0000
  C   C37       1.0  0.99357  0.02051  0.37433  1.0000
  C   C38       1.0  0.02283  0.99530  0.38418  1.0000
  C   C39       1.0  0.06505  0.00008  0.38070  1.0000
  C   C40       1.0  0.07881  0.03216  0.37007  1.0000
  C   C41       1.0  0.05192  0.05850  0.36081  1.0000
  C   C42       1.0  0.01013  0.05180  0.36215  1.0000
  H   H49       1.0  0.01352  0.97237  0.39635  1.0000
  H   H50       1.0  0.99118  0.07078  0.34981  1.0000
  H   H51       1.0  0.10902  0.03644  0.36717  1.0000
  C   C43       1.0  0.95058  0.01518  0.37434  1.0000
  C   C44       1.0  0.93381  0.98410  0.36211  1.0000
  C   C45       1.0  0.89200  0.97742  0.36076  1.0000
  C   C46       1.0  0.86527  0.00360  0.37010  1.0000
  C   C47       1.0  0.87920  0.03550  0.38075  1.0000
  C   C48       1.0  0.92149  0.04022  0.38421  1.0000
  H   H52       1.0  0.95256  0.96533  0.34975  1.0000
  H   H53       1.0  0.83501  0.99937  0.36721  1.0000
  H   H54       1.0  0.93100  0.06294  0.39642  1.0000
  C   C49       1.0  0.85114  0.06133  0.38575  1.0000
  C   C50       1.0  0.06454  0.09079  0.34693  1.0000
  C   C51       1.0  0.09320  0.97417  0.38567  1.0000
  C   C52       1.0  0.87915  0.94537  0.34690  1.0000
  H   H55       1.0  0.82116  0.05648  0.37948  1.0000
  H   H56       1.0  0.12308  0.97912  0.37941  1.0000
  C   C53       1.0  0.20575  0.33136  0.36823  1.0000
  C   C54       1.0  0.19993  0.29868  0.34153  1.0000
  C   C55       1.0  0.16160  0.28666  0.31498  1.0000
  C   C56       1.0  0.12850  0.30819  0.31684  1.0000
  C   C57       1.0  0.13092  0.33748  0.36238  1.0000
  C   C58       1.0  0.16955  0.34812  0.38845  1.0000
  H   H57       1.0  0.22402  0.28403  0.33182  1.0000
  H   H58       1.0  0.17080  0.36912  0.42276  1.0000
  H   H59       1.0  0.10044  0.29993  0.30011  1.0000
  C   C59       1.0  0.24425  0.34726  0.37534  1.0000
  C   C60       1.0  0.28200  0.33064  0.37476  1.0000
  C   C61       1.0  0.31988  0.34636  0.37939  1.0000
  C   C62       1.0  0.31929  0.38022  0.38478  1.0000
  C   C63       1.0  0.28354  0.39866  0.38272  1.0000
  C   C64       1.0  0.24694  0.38168  0.37722  1.0000
  H   H60       1.0  0.28240  0.30614  0.37299  1.0000
  H   H61       1.0  0.34598  0.39213  0.38819  1.0000
  H   H62       1.0  0.22171  0.39556  0.37059  1.0000
  C   C65       1.0  0.28678  0.43268  0.38589  1.0000
  C   C66       1.0  0.09544  0.35333  0.38886  1.0000
  C   C67       1.0  0.15196  0.25478  0.28966  1.0000
  C   C68       1.0  0.35725  0.32953  0.37771  1.0000
  H   H63       1.0  0.31527  0.44144  0.39101  1.0000
  H   H64       1.0  0.09694  0.36985  0.43901  1.0000
  H   H65       1.0  0.12459  0.25247  0.25871  1.0000
  H   H66       1.0  0.35729  0.30506  0.37252  1.0000
  C   C69       1.0  0.73831  0.70445  0.36842  1.0000
  C   C70       1.0  0.74367  0.73758  0.34169  1.0000
  C   C71       1.0  0.78157  0.75007  0.31526  1.0000
  C   C72       1.0  0.81472  0.72853  0.31742  1.0000
  C   C73       1.0  0.81305  0.69844  0.36269  1.0000
  C   C74       1.0  0.77484  0.68733  0.38863  1.0000
  H   H67       1.0  0.71941  0.75238  0.33184  1.0000
  H   H68       1.0  0.77416  0.66573  0.42286  1.0000
  H   H69       1.0  0.84246  0.73711  0.30045  1.0000
  C   C75       1.0  0.69992  0.68842  0.37546  1.0000
  C   C76       1.0  0.66216  0.70505  0.37491  1.0000
  C   C77       1.0  0.62435  0.68925  0.37947  1.0000
  C   C78       1.0  0.62503  0.65529  0.38481  1.0000
  C   C79       1.0  0.66075  0.63689  0.38276  1.0000
  C   C80       1.0  0.69726  0.65397  0.37731  1.0000
  H   H70       1.0  0.66173  0.72958  0.37316  1.0000
  H   H71       1.0  0.59840  0.64333  0.38820  1.0000
  H   H72       1.0  0.72238  0.64021  0.37067  1.0000
  C   C81       1.0  0.65756  0.60282  0.38592  1.0000
  C   C82       1.0  0.84896  0.68209  0.38905  1.0000
  C   C83       1.0  0.79073  0.78237  0.28973  1.0000
  C   C84       1.0  0.58696  0.70611  0.37778  1.0000
  H   H73       1.0  0.62915  0.59397  0.39101  1.0000
  H   H74       1.0  0.84829  0.66466  0.43903  1.0000
  H   H75       1.0  0.81758  0.78521  0.25876  1.0000
  H   H76       1.0  0.58683  0.73067  0.37267  1.0000
  C   C85       1.0  0.74834  0.32253  0.37581  1.0000
  C   C86       1.0  0.75666  0.28911  0.39651  1.0000
  C   C87       1.0  0.79609  0.27716  0.41721  1.0000
  C   C88       1.0  0.82763  0.29994  0.41712  1.0000
  C   C89       1.0  0.82268  0.33113  0.37943  1.0000
  C   C90       1.0  0.78313  0.34143  0.35779  1.0000
  H   H77       1.0  0.73368  0.27322  0.40379  1.0000
  H   H78       1.0  0.85645  0.29215  0.43046  1.0000
  C   C91       1.0  0.70877  0.33730  0.37193  1.0000
  C   C92       1.0  0.67239  0.31915  0.37028  1.0000
  C   C93       1.0  0.63335  0.33330  0.36995  1.0000
  C   C94       1.0  0.63105  0.36718  0.37117  1.0000
  C   C95       1.0  0.66533  0.38706  0.37390  1.0000
  C   C96       1.0  0.70329  0.37156  0.37493  1.0000
  H   H79       1.0  0.67389  0.29469  0.36763  1.0000
  H   H80       1.0  0.60326  0.37785  0.37089  1.0000
  H   H81       1.0  0.72741  0.38627  0.38298  1.0000
  C   C97       1.0  0.65911  0.42086  0.37758  1.0000
  C   C98       1.0  0.80862  0.24463  0.43341  1.0000
  C   C99       1.0  0.59761  0.31468  0.36863  1.0000
  H   H82       1.0  0.63000  0.42813  0.37379  1.0000
  H   H83       1.0  0.83720  0.24223  0.45840  1.0000
  C   C100      1.0  0.19584  0.71314  0.37586  1.0000
  C   C101      1.0  0.18785  0.74621  0.39650  1.0000
  C   C102      1.0  0.14878  0.75779  0.41732  1.0000
  C   C103      1.0  0.11725  0.73498  0.41773  1.0000
  C   C104      1.0  0.12156  0.70448  0.37971  1.0000
  C   C105      1.0  0.16074  0.69456  0.35788  1.0000
  H   H84       1.0  0.21093  0.76201  0.40356  1.0000
  H   H85       1.0  0.08865  0.74257  0.43078  1.0000
  C   C106      1.0  0.23534  0.69845  0.37187  1.0000
  C   C107      1.0  0.27169  0.71662  0.37033  1.0000
  C   C108      1.0  0.31072  0.70248  0.36996  1.0000
  C   C109      1.0  0.31305  0.66858  0.37113  1.0000
  C   C110      1.0  0.27881  0.64865  0.37386  1.0000
  C   C111      1.0  0.24086  0.66414  0.37489  1.0000
  H   H86       1.0  0.27015  0.74113  0.36771  1.0000
  H   H87       1.0  0.34083  0.65791  0.37087  1.0000
  H   H88       1.0  0.21688  0.64929  0.38292  1.0000
  C   C112      1.0  0.28509  0.61479  0.37758  1.0000
  C   C113      1.0  0.13648  0.79005  0.43326  1.0000
  C   C114      1.0  0.34644  0.72112  0.36870  1.0000
  H   H89       1.0  0.31413  0.60759  0.37375  1.0000
  H   H90       1.0  0.10837  0.79203  0.45854  1.0000
  C   C115      1.0  0.15432  0.19573  0.31846  1.0000
  C   C116      1.0  0.17432  0.16992  0.36598  1.0000
  C   C117      1.0  0.15633  0.13895  0.37066  1.0000
  H   H91       1.0  0.17047  0.12110  0.40850  1.0000
  C   C118      1.0  0.21325  0.17407  0.41530  1.0000
  H   H92       1.0  0.22536  0.19828  0.40799  1.0000
  H   H93       1.0  0.23546  0.15738  0.38954  1.0000
  H   H94       1.0  0.20939  0.16891  0.48750  1.0000
  N   N5        1.0  0.16857  0.22677  0.32295  1.0000
  C   C119      1.0  0.78888  0.84092  0.31860  1.0000
  C   C120      1.0  0.76968  0.86593  0.36613  1.0000
  C   C121      1.0  0.78776  0.89681  0.37084  1.0000
  H   H95       1.0  0.77428  0.91402  0.40867  1.0000
  C   C122      1.0  0.73161  0.86092  0.41559  1.0000
  H   H96       1.0  0.71937  0.83684  0.40829  1.0000
  H   H97       1.0  0.70895  0.87806  0.38994  1.0000
  H   H98       1.0  0.73672  0.86483  0.48779  1.0000
  N   N6        1.0  0.77471  0.80981  0.32308  1.0000
  C   C123      1.0  0.84357  0.12186  0.40254  1.0000
  C   C124      1.0  0.86770  0.14898  0.42150  1.0000
  C   C125      1.0  0.84955  0.17976  0.42571  1.0000
  C   C126      1.0  0.80778  0.18561  0.41095  1.0000
  H   H99       1.0  0.86840  0.19848  0.43730  1.0000
  C   C127      1.0  0.91200  0.14702  0.43764  1.0000
  H   H100      1.0  0.92415  0.12273  0.43410  1.0000
  H   H101      1.0  0.91944  0.15594  0.50486  1.0000
  H   H102      1.0  0.92720  0.16190  0.38703  1.0000
  N   N7        1.0  0.86179  0.09243  0.39813  1.0000
  N   N8        1.0  0.79117  0.21617  0.41124  1.0000
  C   C128      1.0  0.10105  0.91334  0.40237  1.0000
  C   C129      1.0  0.07722  0.88590  0.42118  1.0000
  C   C130      1.0  0.09544  0.85504  0.42537  1.0000
  C   C131      1.0  0.13698  0.84944  0.41075  1.0000
  H   H103      1.0  0.07678  0.83612  0.43681  1.0000
  C   C132      1.0  0.03318  0.88757  0.43718  1.0000
  H   H104      1.0  0.02098  0.91192  0.43368  1.0000
  H   H105      1.0  0.02682  0.87748  0.50435  1.0000
  H   H106      1.0  0.01717  0.87357  0.38649  1.0000
  N   N9        1.0  0.08275  0.94285  0.39798  1.0000
  N   N10       1.0  0.15359  0.81888  0.41107  1.0000
  C   C133      1.0  0.26036  0.55777  0.38665  1.0000
  C   C134      1.0  0.29487  0.53880  0.41212  1.0000
  C   C135      1.0  0.29271  0.50480  0.40889  1.0000
  H   H107      1.0  0.31777  0.49190  0.42737  1.0000
  C   C136      1.0  0.33301  0.55245  0.44852  1.0000
  H   H108      1.0  0.32664  0.57098  0.49742  1.0000
  H   H109      1.0  0.35055  0.56242  0.39301  1.0000
  H   H110      1.0  0.35195  0.53453  0.48412  1.0000
  N   N11       1.0  0.25753  0.59074  0.37883  1.0000
  C   C137      1.0  0.68399  0.47772  0.38670  1.0000
  C   C138      1.0  0.64990  0.49625  0.41211  1.0000
  C   C139      1.0  0.65201  0.53031  0.40893  1.0000
  H   H111      1.0  0.62726  0.54289  0.42739  1.0000
  C   C140      1.0  0.61240  0.48198  0.44865  1.0000
  H   H112      1.0  0.61962  0.46261  0.49753  1.0000
  H   H113      1.0  0.59389  0.47296  0.39322  1.0000
  H   H114      1.0  0.59409  0.49929  0.48433  1.0000
  N   N12       1.0  0.68670  0.44489  0.37887  1.0000
  C   C141      1.0  0.01917  0.34905  0.36642  1.0000
  C   C142      1.0  0.00065  0.34738  0.45250  1.0000
  C   C143      1.0  0.95819  0.34560  0.45524  1.0000
  C   C144      1.0  0.93337  0.34728  0.37656  1.0000
  H   H115      1.0  0.94482  0.34309  0.51709  1.0000
  C   C145      1.0  0.02264  0.34332  0.54077  1.0000
  H   H116      1.0  0.05474  0.33992  0.53434  1.0000
  H   H117      1.0  0.01156  0.32217  0.57764  1.0000
  H   H118      1.0  0.01763  0.36445  0.58159  1.0000
  N   N13       1.0  0.05914  0.34713  0.35024  1.0000
  N   N14       1.0  0.89363  0.34318  0.39219  1.0000
  C   C146      1.0  0.92485  0.68675  0.36659  1.0000
  C   C147      1.0  0.94482  0.68686  0.45267  1.0000
  C   C148      1.0  0.98731  0.68865  0.45542  1.0000
  C   C149      1.0  0.01082  0.68838  0.37673  1.0000
  H   H119      1.0  0.00172  0.69006  0.51727  1.0000
  C   C150      1.0  0.92433  0.68942  0.54097  1.0000
  H   H120      1.0  0.89210  0.69287  0.53459  1.0000
  H   H121      1.0  0.93598  0.70997  0.57776  1.0000
  H   H122      1.0  0.93009  0.66761  0.58186  1.0000
  N   N15       1.0  0.88461  0.68898  0.35045  1.0000
  N   N16       1.0  0.05083  0.69220  0.39238  1.0000
  C   C151      1.0  0.51929  0.32872  0.37350  1.0000
  C   C152      1.0  0.43369  0.33917  0.37938  1.0000
  C   C153      1.0  0.46072  0.36545  0.38572  1.0000
  C   C154      1.0  0.50263  0.35974  0.38234  1.0000
  H   H123      1.0  0.52169  0.37896  0.38703  1.0000
  C   C155      1.0  0.44766  0.39943  0.39616  1.0000
  H   H124      1.0  0.41529  0.40230  0.39957  1.0000
  H   H125      1.0  0.45793  0.41406  0.33877  1.0000
  H   H126      1.0  0.46074  0.40886  0.45846  1.0000
  N   N17       1.0  0.56025  0.32803  0.37213  1.0000
  N   N18       1.0  0.39330  0.34490  0.38104  1.0000
  C   C156      1.0  0.42485  0.70700  0.37354  1.0000
  C   C157      1.0  0.51054  0.69644  0.37940  1.0000
  C   C158      1.0  0.48362  0.67005  0.38567  1.0000
  C   C159      1.0  0.44166  0.67582  0.38231  1.0000
  H   H127      1.0  0.42267  0.65653  0.38693  1.0000
  C   C160      1.0  0.49685  0.63589  0.39602  1.0000
  H   H128      1.0  0.52928  0.63296  0.39941  1.0000
  H   H129      1.0  0.48562  0.62226  0.33860  1.0000
  H   H130      1.0  0.48482  0.62538  0.45830  1.0000
  N   N19       1.0  0.38386  0.70771  0.37216  1.0000
  N   N20       1.0  0.55097  0.69068  0.38106  1.0000
