data_image0
_chemical_formula_structural       C3NC3NC5NC5NC20H18C4H4C3NC3NC5NC5NC20H18C4H4C3NC3NC5NC5NC20H18C4H4NC2HCH4N2C2HCH4N2C2HCH4N2C2HCH4N2C2HCH4N2C2HCH4NC8H8C8H8C8H8CNCNCNHCH2NCNCNCNHCH2NCNCNCNHCH2NCNCNCNHCH2NCNCNCNHCH2NCNCNCNHCH2N
_chemical_formula_sum              "C186 N48 H138"
_cell_length_a       50.5131
_cell_length_b       50.5131
_cell_length_c       14.7755
_cell_angle_alpha    90.016
_cell_angle_beta     89.984
_cell_angle_gamma    120

_space_group_name_H-M_alt    "P 1"
_space_group_IT_number       1

loop_
  _space_group_symop_operation_xyz
  'x, y, z'

loop_
  _atom_site_type_symbol
  _atom_site_label
  _atom_site_symmetry_multiplicity
  _atom_site_fract_x
  _atom_site_fract_y
  _atom_site_fract_z
  _atom_site_occupancy
  C   C1        1.0  0.02355  0.63956  0.33568  1.0000
  C   C2        1.0  0.05518  0.65544  0.33577  1.0000
  C   C3        1.0  0.06534  0.63430  0.33827  1.0000
  N   N1        1.0  0.03950  0.60649  0.34061  1.0000
  C   C4        1.0  0.01358  0.60831  0.33830  1.0000
  C   C5        1.0  0.98242  0.58451  0.33763  1.0000
  C   C6        1.0  0.97268  0.55275  0.33837  1.0000
  N   N2        1.0  0.98998  0.53919  0.34109  1.0000
  C   C7        1.0  0.97280  0.50831  0.33835  1.0000
  C   C8        1.0  0.94246  0.50170  0.33376  1.0000
  C   C9        1.0  0.94238  0.52895  0.33417  1.0000
  C   C10       1.0  0.98272  0.48643  0.33768  1.0000
  C   C11       1.0  0.01395  0.49396  0.33826  1.0000
  N   N3        1.0  0.03978  0.52178  0.34063  1.0000
  C   C12       1.0  0.06570  0.51995  0.33829  1.0000
  C   C13       1.0  0.05573  0.48871  0.33574  1.0000
  C   C14       1.0  0.02411  0.47283  0.33581  1.0000
  C   C15       1.0  0.09686  0.54375  0.33753  1.0000
  C   C16       1.0  0.10660  0.57551  0.33848  1.0000
  N   N4        1.0  0.08930  0.58908  0.34119  1.0000
  C   C17       1.0  0.10649  0.61995  0.33858  1.0000
  C   C18       1.0  0.13683  0.62657  0.33401  1.0000
  C   C19       1.0  0.13691  0.59931  0.33431  1.0000
  C   C20       1.0  0.09657  0.64184  0.33773  1.0000
  C   C21       1.0  0.11980  0.67330  0.32940  1.0000
  C   C22       1.0  0.17280  0.73252  0.30452  1.0000
  C   C23       1.0  0.15333  0.71626  0.23109  1.0000
  C   C24       1.0  0.12742  0.68714  0.24309  1.0000
  C   C25       1.0  0.12026  0.53574  0.32993  1.0000
  C   C26       1.0  0.17465  0.53175  0.31094  1.0000
  C   C27       1.0  0.15772  0.53165  0.23429  1.0000
  C   C28       1.0  0.13102  0.53363  0.24349  1.0000
  C   C29       1.0  0.95949  0.45497  0.32925  1.0000
  C   C30       1.0  0.95197  0.44113  0.24291  1.0000
  C   C31       1.0  0.92609  0.41198  0.23085  1.0000
  C   C32       1.0  0.90664  0.39566  0.30425  1.0000
  C   C33       1.0  0.95901  0.59252  0.33003  1.0000
  C   C34       1.0  0.94837  0.59480  0.24361  1.0000
  C   C35       1.0  0.90453  0.59631  0.31100  1.0000
  C   C36       1.0  0.92163  0.59671  0.23439  1.0000
  H   H1        1.0  0.91404  0.59706  0.17037  1.0000
  H   H2        1.0  0.95909  0.59339  0.18650  1.0000
  H   H3        1.0  0.01026  0.64954  0.33346  1.0000
  H   H4        1.0  0.06834  0.67872  0.33372  1.0000
  H   H5        1.0  0.03956  0.58752  0.34255  1.0000
  H   H6        1.0  0.03972  0.54075  0.34230  1.0000
  H   H7        1.0  0.92310  0.53066  0.32981  1.0000
  H   H8        1.0  0.92323  0.48069  0.32913  1.0000
  H   H9        1.0  0.96453  0.45275  0.18737  1.0000
  H   H10       1.0  0.92103  0.40324  0.16660  1.0000
  H   H11       1.0  0.01094  0.44954  0.33372  1.0000
  H   H12       1.0  0.06902  0.47873  0.33338  1.0000
  H   H13       1.0  0.15605  0.64757  0.32917  1.0000
  H   H14       1.0  0.15618  0.59760  0.32980  1.0000
  H   H15       1.0  0.12040  0.53518  0.18638  1.0000
  H   H16       1.0  0.16536  0.53135  0.17028  1.0000
  H   H17       1.0  0.11483  0.67556  0.18754  1.0000
  H   H18       1.0  0.15844  0.72500  0.16685  1.0000
  C   C37       1.0  0.20283  0.53335  0.29850  1.0000
  C   C38       1.0  0.87988  0.36785  0.28795  1.0000
  C   C39       1.0  0.87629  0.59458  0.29847  1.0000
  C   C40       1.0  0.19964  0.76026  0.28824  1.0000
  H   H19       1.0  0.21331  0.54115  0.23941  1.0000
  H   H20       1.0  0.87422  0.36124  0.22402  1.0000
  H   H21       1.0  0.86590  0.58682  0.23926  1.0000
  H   H22       1.0  0.20529  0.76689  0.22433  1.0000
  C   C41       1.0  0.46375  0.47171  0.33589  1.0000
  C   C42       1.0  0.44787  0.48746  0.33596  1.0000
  C   C43       1.0  0.46902  0.51876  0.33828  1.0000
  N   N5        1.0  0.49682  0.52073  0.34065  1.0000
  C   C44       1.0  0.49500  0.49298  0.33839  1.0000
  C   C45       1.0  0.51879  0.48562  0.33759  1.0000
  C   C46       1.0  0.55055  0.50763  0.33828  1.0000
  N   N6        1.0  0.56413  0.53850  0.34096  1.0000
  C   C47       1.0  0.59500  0.55219  0.33813  1.0000
  C   C48       1.0  0.60161  0.52846  0.33349  1.0000
  C   C49       1.0  0.57436  0.50113  0.33388  1.0000
  C   C50       1.0  0.61689  0.58399  0.33741  1.0000
  C   C51       1.0  0.60936  0.60769  0.33813  1.0000
  N   N7        1.0  0.58155  0.60571  0.34052  1.0000
  C   C52       1.0  0.58338  0.63346  0.33826  1.0000
  C   C53       1.0  0.61463  0.65473  0.33571  1.0000
  C   C54       1.0  0.63050  0.63899  0.33579  1.0000
  C   C55       1.0  0.55959  0.64082  0.33757  1.0000
  C   C56       1.0  0.52782  0.61881  0.33824  1.0000
  N   N8        1.0  0.51425  0.58794  0.34093  1.0000
  C   C57       1.0  0.48338  0.57426  0.33822  1.0000
  C   C58       1.0  0.47677  0.59799  0.33365  1.0000
  C   C59       1.0  0.50402  0.62531  0.33401  1.0000
  C   C60       1.0  0.46149  0.54245  0.33755  1.0000
  C   C61       1.0  0.43003  0.53423  0.32920  1.0000
  C   C62       1.0  0.37079  0.52795  0.30444  1.0000
  C   C63       1.0  0.38704  0.52473  0.23098  1.0000
  C   C64       1.0  0.41615  0.52791  0.24294  1.0000
  C   C65       1.0  0.56760  0.67223  0.32988  1.0000
  C   C66       1.0  0.57159  0.73061  0.31082  1.0000
  C   C67       1.0  0.57170  0.71377  0.23418  1.0000
  C   C68       1.0  0.56967  0.68506  0.24342  1.0000
  C   C69       1.0  0.64835  0.59222  0.32901  1.0000
  C   C70       1.0  0.66223  0.59857  0.24273  1.0000
  C   C71       1.0  0.69138  0.60185  0.23075  1.0000
  C   C72       1.0  0.70766  0.59869  0.30417  1.0000
  C   C73       1.0  0.51078  0.45420  0.33000  1.0000
  C   C74       1.0  0.50851  0.44126  0.24359  1.0000
  C   C75       1.0  0.50702  0.39592  0.31096  1.0000
  C   C76       1.0  0.50661  0.41261  0.23436  1.0000
  H   H23       1.0  0.50625  0.40465  0.17033  1.0000
  H   H24       1.0  0.50989  0.45336  0.18648  1.0000
  H   H25       1.0  0.45377  0.44844  0.33353  1.0000
  H   H26       1.0  0.42459  0.47735  0.33373  1.0000
  H   H27       1.0  0.51580  0.53976  0.34222  1.0000
  H   H28       1.0  0.56258  0.58668  0.34224  1.0000
  H   H29       1.0  0.57264  0.48014  0.32964  1.0000
  H   H30       1.0  0.62262  0.53024  0.32882  1.0000
  H   H31       1.0  0.65064  0.59958  0.18720  1.0000
  H   H32       1.0  0.70017  0.60560  0.16655  1.0000
  H   H33       1.0  0.65378  0.64910  0.33358  1.0000
  H   H34       1.0  0.62461  0.67801  0.33342  1.0000
  H   H35       1.0  0.45576  0.59622  0.32919  1.0000
  H   H36       1.0  0.50574  0.64631  0.32996  1.0000
  H   H37       1.0  0.56812  0.67288  0.18632  1.0000
  H   H38       1.0  0.57194  0.72166  0.17016  1.0000
  H   H39       1.0  0.42773  0.52692  0.18737  1.0000
  H   H40       1.0  0.37827  0.52106  0.16678  1.0000
  C   C77       1.0  0.57002  0.75721  0.29835  1.0000
  C   C78       1.0  0.73548  0.59975  0.28794  1.0000
  C   C79       1.0  0.50876  0.36942  0.29841  1.0000
  C   C80       1.0  0.34304  0.52706  0.28819  1.0000
  H   H41       1.0  0.56223  0.75988  0.23924  1.0000
  H   H42       1.0  0.74212  0.60072  0.22402  1.0000
  H   H43       1.0  0.51649  0.36676  0.23917  1.0000
  H   H44       1.0  0.33641  0.52608  0.22428  1.0000
  C   C81       1.0  0.63162  0.07976  0.33564  1.0000
  C   C82       1.0  0.61587  0.04813  0.33574  1.0000
  C   C83       1.0  0.58457  0.03797  0.33815  1.0000
  N   N9        1.0  0.58260  0.06380  0.34054  1.0000
  C   C84       1.0  0.61034  0.08973  0.33830  1.0000
  C   C85       1.0  0.61770  0.12088  0.33768  1.0000
  C   C86       1.0  0.59568  0.13063  0.33841  1.0000
  N   N10       1.0  0.56482  0.11333  0.34107  1.0000
  C   C87       1.0  0.55112  0.13051  0.33837  1.0000
  C   C88       1.0  0.57485  0.16085  0.33374  1.0000
  C   C89       1.0  0.60218  0.16093  0.33410  1.0000
  C   C90       1.0  0.51932  0.12059  0.33760  1.0000
  C   C91       1.0  0.49563  0.08936  0.33811  1.0000
  N   N11       1.0  0.49761  0.06353  0.34049  1.0000
  C   C92       1.0  0.46986  0.03761  0.33812  1.0000
  C   C93       1.0  0.44859  0.04758  0.33544  1.0000
  C   C94       1.0  0.46433  0.07920  0.33555  1.0000
  C   C95       1.0  0.46250  0.00645  0.33745  1.0000
  C   C96       1.0  0.48452  0.99671  0.33814  1.0000
  N   N12       1.0  0.51538  0.01401  0.34082  1.0000
  C   C97       1.0  0.52908  0.99683  0.33814  1.0000
  C   C98       1.0  0.50535  0.96648  0.33362  1.0000
  C   C99       1.0  0.47802  0.96640  0.33401  1.0000
  C   C100      1.0  0.56088  0.00674  0.33751  1.0000
  C   C101      1.0  0.56910  0.98350  0.32911  1.0000
  C   C102      1.0  0.57538  0.93054  0.30431  1.0000
  C   C103      1.0  0.57856  0.94998  0.23084  1.0000
  C   C104      1.0  0.57537  0.97591  0.24282  1.0000
  C   C105      1.0  0.43109  0.98305  0.32975  1.0000
  C   C106      1.0  0.37270  0.92869  0.31083  1.0000
  C   C107      1.0  0.38954  0.94560  0.23416  1.0000
  C   C108      1.0  0.41823  0.97232  0.24332  1.0000
  C   C109      1.0  0.51109  0.14382  0.32909  1.0000
  C   C110      1.0  0.50482  0.15137  0.24276  1.0000
  C   C111      1.0  0.50151  0.17722  0.23071  1.0000
  C   C112      1.0  0.50464  0.19667  0.30413  1.0000
  C   C113      1.0  0.64911  0.14429  0.33005  1.0000
  C   C114      1.0  0.66204  0.15494  0.24361  1.0000
  C   C115      1.0  0.70741  0.19878  0.31100  1.0000
  C   C116      1.0  0.69069  0.18169  0.23440  1.0000
  H   H45       1.0  0.69867  0.18926  0.17038  1.0000
  H   H46       1.0  0.64993  0.14421  0.18652  1.0000
  H   H47       1.0  0.65489  0.09305  0.33341  1.0000
  H   H48       1.0  0.62599  0.03496  0.33353  1.0000
  H   H49       1.0  0.56357  0.06374  0.34239  1.0000
  H   H50       1.0  0.51663  0.06359  0.34251  1.0000
  H   H51       1.0  0.62317  0.18021  0.32989  1.0000
  H   H52       1.0  0.57307  0.18008  0.32913  1.0000
  H   H53       1.0  0.50383  0.13877  0.18724  1.0000
  H   H54       1.0  0.49784  0.18228  0.16647  1.0000
  H   H55       1.0  0.45421  0.09237  0.33338  1.0000
  H   H56       1.0  0.42532  0.03429  0.33308  1.0000
  H   H57       1.0  0.50712  0.94724  0.32932  1.0000
  H   H58       1.0  0.45702  0.94712  0.33003  1.0000
  H   H59       1.0  0.43042  0.98289  0.18619  1.0000
  H   H60       1.0  0.38163  0.93793  0.17016  1.0000
  H   H61       1.0  0.57637  0.98848  0.18726  1.0000
  H   H62       1.0  0.58223  0.94488  0.16663  1.0000
  C   C117      1.0  0.34613  0.90049  0.29842  1.0000
  C   C118      1.0  0.50360  0.22344  0.28784  1.0000
  C   C119      1.0  0.73390  0.22702  0.29846  1.0000
  C   C120      1.0  0.57631  0.90371  0.28808  1.0000
  H   H63       1.0  0.34348  0.89000  0.23936  1.0000
  H   H64       1.0  0.50267  0.22910  0.22391  1.0000
  H   H65       1.0  0.73654  0.23741  0.23924  1.0000
  H   H66       1.0  0.57733  0.89807  0.22418  1.0000
  N   N13       1.0  0.26089  0.53566  0.28053  1.0000
  C   C121      1.0  0.28804  0.53639  0.27305  1.0000
  C   C122      1.0  0.29916  0.52742  0.34775  1.0000
  H   H67       1.0  0.29996  0.54358  0.21383  1.0000
  C   C123      1.0  0.22580  0.52222  0.05279  1.0000
  H   H68       1.0  0.25079  0.53479  0.05121  1.0000
  H   H69       1.0  0.21885  0.50904  0.11548  1.0000
  H   H70       1.0  0.21768  0.53863  0.05389  1.0000
  H   H71       1.0  0.17173  0.46878  0.03754  1.0000
  N   N14       1.0  0.32561  0.52753  0.35112  1.0000
  N   N15       1.0  0.56770  0.81294  0.28038  1.0000
  C   C124      1.0  0.56696  0.83936  0.27291  1.0000
  C   C125      1.0  0.57588  0.85944  0.34765  1.0000
  H   H72       1.0  0.55978  0.84408  0.21368  1.0000
  C   C126      1.0  0.58112  0.79129  0.05268  1.0000
  H   H73       1.0  0.56853  0.80368  0.05113  1.0000
  H   H74       1.0  0.59430  0.79752  0.11535  1.0000
  H   H75       1.0  0.56472  0.76675  0.05376  1.0000
  H   H76       1.0  0.63458  0.79069  0.03736  1.0000
  N   N16       1.0  0.57577  0.88578  0.35100  1.0000
  N   N17       1.0  0.29039  0.84245  0.28045  1.0000
  C   C127      1.0  0.26398  0.81529  0.27301  1.0000
  C   C128      1.0  0.24390  0.80414  0.34777  1.0000
  H   H77       1.0  0.25923  0.80338  0.21375  1.0000
  C   C129      1.0  0.31208  0.87758  0.05278  1.0000
  H   H78       1.0  0.29967  0.85260  0.05131  1.0000
  H   H79       1.0  0.30586  0.88457  0.11544  1.0000
  H   H80       1.0  0.33662  0.88572  0.05386  1.0000
  H   H81       1.0  0.31269  0.93164  0.03729  1.0000
  N   N18       1.0  0.21756  0.77769  0.35114  1.0000
  N   N19       1.0  0.81802  0.59179  0.28042  1.0000
  C   C130      1.0  0.79079  0.59088  0.27286  1.0000
  C   C131      1.0  0.77951  0.59970  0.34758  1.0000
  H   H82       1.0  0.77891  0.58366  0.21358  1.0000
  C   C132      1.0  0.85264  0.60512  0.05282  1.0000
  H   H83       1.0  0.82767  0.59248  0.05081  1.0000
  H   H84       1.0  0.85943  0.61825  0.11562  1.0000
  H   H85       1.0  0.86085  0.58878  0.05409  1.0000
  H   H86       1.0  0.90667  0.65866  0.03847  1.0000
  N   N20       1.0  0.75298  0.59942  0.35088  1.0000
  N   N21       1.0  0.51153  0.31393  0.28031  1.0000
  C   C133      1.0  0.51244  0.28760  0.27274  1.0000
  C   C134      1.0  0.50363  0.26752  0.34745  1.0000
  H   H87       1.0  0.51965  0.28293  0.21344  1.0000
  C   C135      1.0  0.49808  0.33526  0.05282  1.0000
  H   H88       1.0  0.51073  0.32293  0.05104  1.0000
  H   H89       1.0  0.48489  0.32893  0.11550  1.0000
  H   H90       1.0  0.51441  0.35981  0.05408  1.0000
  H   H91       1.0  0.44452  0.33569  0.03785  1.0000
  N   N22       1.0  0.50390  0.24126  0.35075  1.0000
  N   N23       1.0  0.78940  0.28529  0.28038  1.0000
  C   C136      1.0  0.81572  0.31253  0.27283  1.0000
  C   C137      1.0  0.83580  0.32380  0.34754  1.0000
  H   H92       1.0  0.82039  0.32440  0.21354  1.0000
  C   C138      1.0  0.76807  0.25057  0.05285  1.0000
  H   H93       1.0  0.78041  0.27555  0.05100  1.0000
  H   H94       1.0  0.77439  0.24373  0.11556  1.0000
  H   H95       1.0  0.74352  0.24237  0.05413  1.0000
  H   H96       1.0  0.76758  0.19655  0.03804  1.0000
  N   N24       1.0  0.86206  0.35033  0.35086  1.0000
  C   C139      1.0  0.13859  0.68965  0.40359  1.0000
  C   C140      1.0  0.16462  0.71877  0.39133  1.0000
  C   C141      1.0  0.13650  0.53500  0.40691  1.0000
  C   C142      1.0  0.16320  0.53291  0.39755  1.0000
  C   C143      1.0  0.91475  0.40943  0.39107  1.0000
  C   C144      1.0  0.94071  0.43859  0.40339  1.0000
  C   C145      1.0  0.94265  0.59304  0.40701  1.0000
  C   C146      1.0  0.91591  0.59508  0.39763  1.0000
  H   H97       1.0  0.90391  0.59389  0.45471  1.0000
  H   H98       1.0  0.94916  0.59029  0.47026  1.0000
  H   H99       1.0  0.94506  0.44840  0.46625  1.0000
  H   H100      1.0  0.90120  0.39883  0.44598  1.0000
  H   H101      1.0  0.12988  0.53761  0.47021  1.0000
  H   H102      1.0  0.17504  0.53383  0.45471  1.0000
  H   H103      1.0  0.17820  0.72931  0.44623  1.0000
  H   H104      1.0  0.13423  0.67981  0.46641  1.0000
  C   C147      1.0  0.41370  0.53669  0.40343  1.0000
  C   C148      1.0  0.38457  0.53357  0.39122  1.0000
  C   C149      1.0  0.56836  0.68924  0.40684  1.0000
  C   C150      1.0  0.57047  0.71804  0.39745  1.0000
  C   C151      1.0  0.69388  0.59303  0.39097  1.0000
  C   C152      1.0  0.66470  0.58981  0.40321  1.0000
  C   C153      1.0  0.51031  0.43733  0.40695  1.0000
  C   C154      1.0  0.50828  0.40857  0.39758  1.0000
  H   H105      1.0  0.50946  0.39776  0.45469  1.0000
  H   H106      1.0  0.51303  0.44661  0.47021  1.0000
  H   H107      1.0  0.65485  0.58430  0.46601  1.0000
  H   H108      1.0  0.70443  0.59002  0.44586  1.0000
  H   H109      1.0  0.56581  0.68006  0.47016  1.0000
  H   H110      1.0  0.56958  0.72899  0.45460  1.0000
  H   H111      1.0  0.37404  0.53664  0.44612  1.0000
  H   H112      1.0  0.42355  0.54220  0.46622  1.0000
  C   C155      1.0  0.56669  0.96475  0.40334  1.0000
  C   C156      1.0  0.56980  0.93873  0.39111  1.0000
  C   C157      1.0  0.41411  0.96683  0.40676  1.0000
  C   C158      1.0  0.38528  0.94017  0.39744  1.0000
  C   C159      1.0  0.51026  0.18855  0.39095  1.0000
  C   C160      1.0  0.51348  0.16260  0.40324  1.0000
  C   C161      1.0  0.66600  0.16066  0.40703  1.0000
  C   C162      1.0  0.69474  0.18742  0.39761  1.0000
  H   H113      1.0  0.70557  0.19939  0.45471  1.0000
  H   H114      1.0  0.65671  0.15415  0.47027  1.0000
  H   H115      1.0  0.51894  0.15825  0.46610  1.0000
  H   H116      1.0  0.51325  0.20212  0.44584  1.0000
  H   H117      1.0  0.42332  0.97346  0.47006  1.0000
  H   H118      1.0  0.37438  0.92830  0.45459  1.0000
  H   H119      1.0  0.56678  0.92518  0.44604  1.0000
  H   H120      1.0  0.56122  0.96913  0.46616  1.0000
  C   C163      1.0  0.24330  0.52692  0.35674  1.0000
  N   N25       1.0  0.28175  0.51895  0.42384  1.0000
  C   C164      1.0  0.25465  0.51841  0.43251  1.0000
  N   N26       1.0  0.24091  0.50849  0.51163  1.0000
  C   C165      1.0  0.22435  0.51593  0.55891  1.0000
  N   N27       1.0  0.21321  0.50117  0.64070  1.0000
  H   H121      1.0  0.22015  0.53229  0.53899  1.0000
  C   C166      1.0  0.17930  0.48183  0.64129  1.0000
  H   H122      1.0  0.17158  0.46539  0.58559  1.0000
  H   H123      1.0  0.16829  0.49568  0.63523  1.0000
  N   N28       1.0  0.21638  0.52604  0.35920  1.0000
  C   C167      1.0  0.57642  0.80409  0.35661  1.0000
  N   N29       1.0  0.58435  0.85051  0.42374  1.0000
  C   C168      1.0  0.58492  0.82397  0.43240  1.0000
  N   N30       1.0  0.59483  0.82016  0.51152  1.0000
  C   C169      1.0  0.58740  0.79617  0.55879  1.0000
  N   N31       1.0  0.60216  0.79979  0.64057  1.0000
  H   H124      1.0  0.57104  0.77559  0.53885  1.0000
  C   C170      1.0  0.62152  0.78525  0.64112  1.0000
  H   H125      1.0  0.63795  0.79397  0.58540  1.0000
  H   H126      1.0  0.60768  0.76039  0.63504  1.0000
  N   N32       1.0  0.57730  0.77806  0.35907  1.0000
  C   C171      1.0  0.29925  0.86002  0.35671  1.0000
  N   N33       1.0  0.25285  0.82154  0.42389  1.0000
  C   C172      1.0  0.27940  0.84863  0.43256  1.0000
  N   N34       1.0  0.28319  0.86238  0.51163  1.0000
  C   C173      1.0  0.30719  0.87896  0.55889  1.0000
  N   N35       1.0  0.30357  0.89014  0.64062  1.0000
  H   H127      1.0  0.32777  0.88317  0.53897  1.0000
  C   C174      1.0  0.31813  0.92405  0.64108  1.0000
  H   H128      1.0  0.30941  0.93173  0.58532  1.0000
  H   H129      1.0  0.34299  0.93506  0.63500  1.0000
  N   N36       1.0  0.32526  0.88694  0.35913  1.0000
  C   C175      1.0  0.83557  0.60059  0.35671  1.0000
  N   N37       1.0  0.79689  0.60824  0.42372  1.0000
  C   C176      1.0  0.82407  0.60898  0.43247  1.0000
  N   N38       1.0  0.83773  0.61892  0.51165  1.0000
  C   C177      1.0  0.85435  0.61158  0.55897  1.0000
  N   N39       1.0  0.86531  0.62627  0.64095  1.0000
  H   H130      1.0  0.85864  0.59526  0.53912  1.0000
  C   C178      1.0  0.89921  0.64570  0.64208  1.0000
  H   H131      1.0  0.90699  0.66218  0.58652  1.0000
  H   H132      1.0  0.91029  0.63191  0.63618  1.0000
  N   N40       1.0  0.86257  0.60166  0.35925  1.0000
  C   C179      1.0  0.50276  0.32270  0.35663  1.0000
  N   N41       1.0  0.49512  0.27638  0.42363  1.0000
  C   C180      1.0  0.49442  0.30285  0.43243  1.0000
  N   N42       1.0  0.48444  0.30656  0.51157  1.0000
  C   C181      1.0  0.49177  0.33052  0.55893  1.0000
  N   N43       1.0  0.47699  0.32679  0.64075  1.0000
  H   H133      1.0  0.50806  0.35113  0.53906  1.0000
  C   C182      1.0  0.45755  0.34125  0.64158  1.0000
  H   H134      1.0  0.44112  0.33252  0.58587  1.0000
  H   H135      1.0  0.47133  0.36611  0.63568  1.0000
  N   N44       1.0  0.50169  0.34863  0.35919  1.0000
  C   C183      1.0  0.78063  0.26775  0.35668  1.0000
  N   N45       1.0  0.82694  0.30643  0.42370  1.0000
  C   C184      1.0  0.80048  0.27927  0.43247  1.0000
  N   N46       1.0  0.79676  0.26559  0.51163  1.0000
  C   C185      1.0  0.77280  0.24898  0.55897  1.0000
  N   N47       1.0  0.77651  0.23796  0.64083  1.0000
  H   H136      1.0  0.75219  0.24467  0.53910  1.0000
  C   C186      1.0  0.76203  0.20405  0.64175  1.0000
  H   H137      1.0  0.77074  0.19631  0.58608  1.0000
  H   H138      1.0  0.73716  0.19298  0.63584  1.0000
  N   N48       1.0  0.75470  0.24075  0.35922  1.0000
