data_image0
_chemical_formula_structural       C2NC2ONH2C2NC2ONH2C2NC2ONH2C2NC2ONH2C2NC2ONH2C2NC2ONH2NCHNCHNCHNCHNCHNCHNCHNCHNCHNCHNCHNCHC2NC2ONH2C2NC2ONH2C2NC2ONH2C2NC2ONH2C2NC2ONH2C2NC2ONH2NCHNCHNCHNCHNCHNCHNCHNCHNCHNCHNCHNCHCNCNCNCNCNCNCNCNCNCNCNCNCNCNCNCNCNCNCNCNCNCNCNCNCNCNCNCNCNCNCNCNCNCNCNCNCNCNCNCNCNCNCNCNCNCNCNCNCNCNCNCNCNCNCNCNCNCNCNCNCNCNCNCNCNCNCNCNCNCNCNCN2CHNCHNCHNCHNCHNCHC2NC2ONH2C2NC2ONH2C2NC2ONH2C2NC2ONH2C2NC2ONH2C2NC2ONH2C2NC2ONH2C2NC2ONH2C2NC2ONH2C2NC2ONH2C2NC2ONH2C2NC2ONH2NCHNCHNCHNCHNCHNCHC2NC2ONH2C2NC2ONH2C2NC2ONH2C2NC2ONH2C2NC2ONH2C2NC2ONH2C2NC2ONH2C2NC2ONH2C2NC2ONH2C2NC2ONH2C2NC2ONH2C2NC2ONH2
_chemical_formula_sum              "C252 N180 O36 H108"
_cell_length_a       53.4954
_cell_length_b       53.4954
_cell_length_c       14.8821
_cell_angle_alpha    90
_cell_angle_beta     90
_cell_angle_gamma    120

_space_group_name_H-M_alt    "P 1"
_space_group_IT_number       1

loop_
  _space_group_symop_operation_xyz
  'x, y, z'

loop_
  _atom_site_type_symbol
  _atom_site_label
  _atom_site_symmetry_multiplicity
  _atom_site_fract_x
  _atom_site_fract_y
  _atom_site_fract_z
  _atom_site_occupancy
  C   C1        1.0  0.14641  0.45838  0.36130  1.0000
  C   C2        1.0  0.12013  0.39763  0.36252  1.0000
  N   N1        1.0  0.10662  0.41148  0.32839  1.0000
  C   C3        1.0  0.11809  0.44085  0.32632  1.0000
  C   C4        1.0  0.10179  0.45133  0.28202  1.0000
  O   O1        1.0  0.07272  0.43606  0.29040  1.0000
  N   N2        1.0  0.11300  0.47300  0.22118  1.0000
  H   H1        1.0  0.13308  0.48207  0.20274  1.0000
  H   H2        1.0  0.10037  0.47781  0.18784  1.0000
  C   C5        1.0  0.55155  0.68994  0.36175  1.0000
  C   C6        1.0  0.61230  0.72440  0.36289  1.0000
  N   N3        1.0  0.59844  0.69711  0.32829  1.0000
  C   C7        1.0  0.56906  0.67922  0.32618  1.0000
  C   C8        1.0  0.55854  0.65248  0.28161  1.0000
  O   O2        1.0  0.57389  0.63873  0.28911  1.0000
  N   N4        1.0  0.53682  0.64205  0.22096  1.0000
  H   H3        1.0  0.52783  0.65316  0.20269  1.0000
  H   H4        1.0  0.53210  0.62475  0.18701  1.0000
  C   C9        1.0  0.31992  0.86347  0.36154  1.0000
  C   C10       1.0  0.28549  0.88979  0.36286  1.0000
  N   N5        1.0  0.31283  0.90327  0.32865  1.0000
  C   C11       1.0  0.33072  0.89179  0.32658  1.0000
  C   C12       1.0  0.35750  0.90807  0.28224  1.0000
  O   O3        1.0  0.37131  0.93714  0.29060  1.0000
  N   N6        1.0  0.36793  0.89684  0.22139  1.0000
  H   H5        1.0  0.35691  0.87676  0.20298  1.0000
  H   H6        1.0  0.38537  0.90946  0.18802  1.0000
  C   C13       1.0  0.86559  0.54952  0.36224  1.0000
  C   C14       1.0  0.89185  0.61027  0.36302  1.0000
  N   N7        1.0  0.90523  0.59640  0.32809  1.0000
  C   C15       1.0  0.89375  0.56703  0.32607  1.0000
  C   C16       1.0  0.90988  0.55649  0.28105  1.0000
  O   O4        1.0  0.93899  0.57185  0.28803  1.0000
  N   N8        1.0  0.89847  0.53475  0.22048  1.0000
  H   H7        1.0  0.87834  0.52576  0.20257  1.0000
  H   H8        1.0  0.91100  0.53003  0.18620  1.0000
  C   C17       1.0  0.46040  0.31790  0.36117  1.0000
  C   C18       1.0  0.39964  0.28344  0.36240  1.0000
  N   N9        1.0  0.41350  0.31080  0.32833  1.0000
  C   C19       1.0  0.44287  0.32870  0.32626  1.0000
  C   C20       1.0  0.45336  0.35550  0.28204  1.0000
  O   O5        1.0  0.43808  0.36929  0.29050  1.0000
  N   N10       1.0  0.47502  0.36597  0.22120  1.0000
  H   H9        1.0  0.48409  0.35496  0.20271  1.0000
  H   H10       1.0  0.47984  0.38342  0.18791  1.0000
  C   C21       1.0  0.69195  0.14437  0.36165  1.0000
  C   C22       1.0  0.72641  0.11808  0.36289  1.0000
  N   N11       1.0  0.69909  0.10461  0.32852  1.0000
  C   C23       1.0  0.68120  0.11610  0.32637  1.0000
  C   C24       1.0  0.65442  0.09982  0.28205  1.0000
  O   O6        1.0  0.64068  0.07074  0.28985  1.0000
  N   N12       1.0  0.64395  0.11106  0.22135  1.0000
  H   H11       1.0  0.65503  0.13113  0.20287  1.0000
  H   H12       1.0  0.62661  0.09843  0.18757  1.0000
  N   N13       1.0  0.44372  0.15400  0.27758  1.0000
  C   C25       1.0  0.41490  0.14220  0.27250  1.0000
  H   H13       1.0  0.40653  0.15378  0.24388  1.0000
  N   N14       1.0  0.71788  0.56623  0.27618  1.0000
  C   C26       1.0  0.73490  0.59505  0.27098  1.0000
  H   H14       1.0  0.75480  0.60342  0.24196  1.0000
  N   N15       1.0  0.85597  0.29175  0.27686  1.0000
  C   C27       1.0  0.86777  0.27473  0.27179  1.0000
  H   H15       1.0  0.85622  0.25480  0.24298  1.0000
  N   N16       1.0  0.56821  0.85417  0.27642  1.0000
  C   C28       1.0  0.59703  0.86599  0.27116  1.0000
  H   H16       1.0  0.60540  0.85445  0.24222  1.0000
  N   N17       1.0  0.29367  0.44175  0.27765  1.0000
  C   C29       1.0  0.27666  0.41293  0.27259  1.0000
  H   H17       1.0  0.25670  0.40455  0.24398  1.0000
  N   N18       1.0  0.15573  0.71601  0.27676  1.0000
  C   C30       1.0  0.14394  0.73305  0.27162  1.0000
  H   H18       1.0  0.15551  0.75298  0.24281  1.0000
  N   N19       1.0  0.24435  0.50833  0.28582  1.0000
  C   C31       1.0  0.26838  0.50685  0.27221  1.0000
  H   H19       1.0  0.26691  0.49008  0.23518  1.0000
  N   N20       1.0  0.50178  0.73811  0.28650  1.0000
  C   C32       1.0  0.50330  0.76364  0.27290  1.0000
  H   H20       1.0  0.52015  0.77896  0.23623  1.0000
  N   N21       1.0  0.27177  0.76557  0.28674  1.0000
  C   C33       1.0  0.24621  0.74158  0.27330  1.0000
  H   H21       1.0  0.23090  0.74309  0.23652  1.0000
  N   N22       1.0  0.76766  0.49990  0.28731  1.0000
  C   C34       1.0  0.74366  0.50145  0.27376  1.0000
  H   H22       1.0  0.74522  0.51835  0.23727  1.0000
  N   N23       1.0  0.51034  0.26991  0.28571  1.0000
  C   C35       1.0  0.50885  0.24439  0.27211  1.0000
  H   H23       1.0  0.49209  0.22910  0.23508  1.0000
  N   N24       1.0  0.73998  0.24231  0.28594  1.0000
  C   C36       1.0  0.76549  0.26634  0.27225  1.0000
  H   H24       1.0  0.78080  0.26482  0.23543  1.0000
  C   C37       1.0  0.17330  0.61441  0.35155  1.0000
  C   C38       1.0  0.17576  0.56319  0.36891  1.0000
  N   N25       1.0  0.15271  0.56340  0.33088  1.0000
  C   C39       1.0  0.15000  0.58744  0.32198  1.0000
  C   C40       1.0  0.12542  0.58378  0.27516  1.0000
  O   O7        1.0  0.09989  0.55964  0.29172  1.0000
  N   N26       1.0  0.12690  0.60023  0.20416  1.0000
  H   H25       1.0  0.14530  0.61547  0.18148  1.0000
  H   H26       1.0  0.10966  0.59543  0.16973  1.0000
  C   C41       1.0  0.39548  0.56093  0.35157  1.0000
  C   C42       1.0  0.44674  0.61458  0.36916  1.0000
  N   N27       1.0  0.44649  0.59130  0.33107  1.0000
  C   C43       1.0  0.42243  0.56458  0.32198  1.0000
  C   C44       1.0  0.42607  0.54362  0.27541  1.0000
  O   O8        1.0  0.45027  0.54231  0.29169  1.0000
  N   N28       1.0  0.40962  0.52857  0.20451  1.0000
  H   H27       1.0  0.39444  0.53179  0.18161  1.0000
  H   H28       1.0  0.41451  0.51623  0.16994  1.0000
  C   C45       1.0  0.44901  0.83652  0.35153  1.0000
  C   C46       1.0  0.39532  0.83403  0.36885  1.0000
  N   N29       1.0  0.41860  0.85712  0.33102  1.0000
  C   C47       1.0  0.44535  0.85984  0.32211  1.0000
  C   C48       1.0  0.46628  0.88445  0.27547  1.0000
  O   O9        1.0  0.46767  0.90997  0.29227  1.0000
  N   N30       1.0  0.48124  0.88303  0.20439  1.0000
  H   H29       1.0  0.47810  0.86465  0.18154  1.0000
  H   H30       1.0  0.49369  0.90030  0.17008  1.0000
  C   C49       1.0  0.83848  0.39345  0.35153  1.0000
  C   C50       1.0  0.83605  0.44468  0.36905  1.0000
  N   N31       1.0  0.85912  0.44447  0.33114  1.0000
  C   C51       1.0  0.86180  0.42042  0.32205  1.0000
  C   C52       1.0  0.88644  0.42409  0.27565  1.0000
  O   O10       1.0  0.91194  0.44827  0.29219  1.0000
  N   N32       1.0  0.88508  0.40769  0.20465  1.0000
  H   H31       1.0  0.86669  0.39254  0.18158  1.0000
  H   H32       1.0  0.90234  0.41261  0.17018  1.0000
  C   C53       1.0  0.61642  0.44704  0.35143  1.0000
  C   C54       1.0  0.56519  0.39336  0.36890  1.0000
  N   N33       1.0  0.56542  0.41662  0.33081  1.0000
  C   C55       1.0  0.58945  0.44337  0.32187  1.0000
  C   C56       1.0  0.58579  0.46427  0.27502  1.0000
  O   O11       1.0  0.56165  0.46567  0.29158  1.0000
  N   N34       1.0  0.60222  0.47922  0.20396  1.0000
  H   H33       1.0  0.61746  0.47606  0.18129  1.0000
  H   H34       1.0  0.59741  0.49165  0.16951  1.0000
  C   C57       1.0  0.56288  0.17135  0.35166  1.0000
  C   C58       1.0  0.61652  0.17373  0.36927  1.0000
  N   N35       1.0  0.59327  0.15072  0.33102  1.0000
  C   C59       1.0  0.56654  0.14806  0.32192  1.0000
  C   C60       1.0  0.54560  0.12349  0.27519  1.0000
  O   O12       1.0  0.54429  0.09796  0.29130  1.0000
  N   N36       1.0  0.53057  0.12494  0.20432  1.0000
  H   H35       1.0  0.53379  0.14335  0.18154  1.0000
  H   H36       1.0  0.51824  0.10772  0.16963  1.0000
  N   N37       1.0  0.99219  0.25978  0.32052  1.0000
  C   C61       1.0  0.02162  0.27273  0.31846  1.0000
  H   H37       1.0  0.03110  0.26196  0.29155  1.0000
  N   N38       1.0  0.75015  0.73442  0.32025  1.0000
  C   C62       1.0  0.73721  0.75092  0.31823  1.0000
  H   H38       1.0  0.74791  0.77109  0.29075  1.0000
  N   N39       1.0  0.27553  0.01770  0.32063  1.0000
  C   C63       1.0  0.25905  0.98827  0.31857  1.0000
  H   H39       1.0  0.23879  0.97878  0.29171  1.0000
  N   N40       1.0  0.01967  0.74813  0.32032  1.0000
  C   C64       1.0  0.99023  0.73518  0.31828  1.0000
  H   H40       1.0  0.98075  0.74590  0.29094  1.0000
  N   N41       1.0  0.26179  0.27356  0.32069  1.0000
  C   C65       1.0  0.27474  0.25708  0.31856  1.0000
  H   H41       1.0  0.26395  0.23682  0.29173  1.0000
  N   N42       1.0  0.73640  0.99023  0.32027  1.0000
  C   C66       1.0  0.75289  0.01966  0.31826  1.0000
  H   H42       1.0  0.77306  0.02913  0.29081  1.0000
  N   N43       1.0  0.14467  0.30684  0.29204  1.0000
  C   C67       1.0  0.16892  0.30460  0.28415  1.0000
  H   H43       1.0  0.17207  0.29596  0.22703  1.0000
  N   N44       1.0  0.70317  0.83981  0.29241  1.0000
  C   C68       1.0  0.70544  0.86632  0.28434  1.0000
  H   H44       1.0  0.71420  0.87810  0.22729  1.0000
  N   N45       1.0  0.17013  0.86528  0.29206  1.0000
  C   C69       1.0  0.14362  0.84103  0.28409  1.0000
  H   H45       1.0  0.13181  0.83794  0.22706  1.0000
  N   N46       1.0  0.86723  0.70103  0.29254  1.0000
  C   C70       1.0  0.84299  0.70329  0.28452  1.0000
  H   H46       1.0  0.83990  0.71195  0.22735  1.0000
  N   N47       1.0  0.30883  0.16813  0.29194  1.0000
  C   C71       1.0  0.30658  0.14163  0.28404  1.0000
  H   H47       1.0  0.29794  0.12984  0.22692  1.0000
  N   N48       1.0  0.84173  0.14263  0.29214  1.0000
  C   C72       1.0  0.86825  0.16687  0.28415  1.0000
  H   H48       1.0  0.87997  0.16997  0.22691  1.0000
  C   C73       1.0  0.16493  0.48894  0.35754  1.0000
  N   N49       1.0  0.15847  0.51066  0.36342  1.0000
  C   C74       1.0  0.18002  0.53908  0.36313  1.0000
  N   N50       1.0  0.20793  0.54522  0.35445  1.0000
  C   C75       1.0  0.21500  0.52442  0.34670  1.0000
  N   N51       1.0  0.19312  0.49697  0.34868  1.0000
  C   C76       1.0  0.52100  0.67795  0.35796  1.0000
  N   N52       1.0  0.49925  0.64978  0.36375  1.0000
  C   C77       1.0  0.47085  0.64295  0.36340  1.0000
  N   N53       1.0  0.46474  0.66473  0.35474  1.0000
  C   C78       1.0  0.48557  0.69261  0.34708  1.0000
  N   N54       1.0  0.51301  0.69814  0.34911  1.0000
  C   C79       1.0  0.33194  0.84493  0.35791  1.0000
  N   N55       1.0  0.36012  0.85136  0.36357  1.0000
  C   C80       1.0  0.36695  0.82978  0.36323  1.0000
  N   N56       1.0  0.34516  0.80189  0.35471  1.0000
  C   C81       1.0  0.31729  0.79485  0.34715  1.0000
  N   N57       1.0  0.31176  0.81675  0.34916  1.0000
  C   C82       1.0  0.84701  0.51898  0.35839  1.0000
  N   N58       1.0  0.85341  0.49721  0.36392  1.0000
  C   C83       1.0  0.83181  0.46881  0.36348  1.0000
  N   N59       1.0  0.80393  0.46274  0.35496  1.0000
  C   C84       1.0  0.79691  0.48360  0.34754  1.0000
  N   N60       1.0  0.81883  0.51103  0.34967  1.0000
  C   C85       1.0  0.49095  0.32994  0.35743  1.0000
  N   N61       1.0  0.51268  0.35812  0.36334  1.0000
  C   C86       1.0  0.54110  0.36498  0.36306  1.0000
  N   N62       1.0  0.54724  0.34322  0.35438  1.0000
  C   C87       1.0  0.52643  0.31535  0.34659  1.0000
  N   N63       1.0  0.49899  0.30978  0.34856  1.0000
  C   C88       1.0  0.67994  0.16291  0.35785  1.0000
  N   N64       1.0  0.65176  0.15646  0.36376  1.0000
  C   C89       1.0  0.64490  0.17801  0.36342  1.0000
  N   N65       1.0  0.66666  0.20591  0.35465  1.0000
  C   C90       1.0  0.69454  0.21297  0.34687  1.0000
  N   N66       1.0  0.70011  0.19110  0.34890  1.0000
  C   C91       1.0  0.48885  0.16046  0.32060  1.0000
  N   N67       1.0  0.51041  0.15409  0.33362  1.0000
  C   C92       1.0  0.53879  0.17552  0.34003  1.0000
  N   N68       1.0  0.54506  0.20357  0.33389  1.0000
  C   C93       1.0  0.52452  0.21068  0.31930  1.0000
  N   N69       1.0  0.49718  0.18877  0.31426  1.0000
  C   C94       1.0  0.67943  0.52114  0.32045  1.0000
  N   N70       1.0  0.65153  0.49954  0.33330  1.0000
  C   C95       1.0  0.64468  0.47119  0.34011  1.0000
  N   N71       1.0  0.66652  0.46502  0.33450  1.0000
  C   C96       1.0  0.69418  0.48562  0.32018  1.0000
  N   N72       1.0  0.69950  0.51292  0.31468  1.0000
  C   C97       1.0  0.84944  0.33035  0.32018  1.0000
  N   N73       1.0  0.85578  0.35826  0.33330  1.0000
  C   C98       1.0  0.83433  0.36518  0.33986  1.0000
  N   N74       1.0  0.80630  0.34339  0.33381  1.0000
  C   C99       1.0  0.79920  0.31574  0.31915  1.0000
  N   N75       1.0  0.82113  0.31034  0.31397  1.0000
  C   C100      1.0  0.52310  0.84757  0.32031  1.0000
  N   N76       1.0  0.50151  0.85389  0.33335  1.0000
  C   C101      1.0  0.47316  0.83241  0.34003  1.0000
  N   N77       1.0  0.46695  0.80439  0.33411  1.0000
  C   C102      1.0  0.48753  0.79731  0.31953  1.0000
  N   N78       1.0  0.51484  0.81927  0.31425  1.0000
  C   C103      1.0  0.33234  0.48689  0.32063  1.0000
  N   N79       1.0  0.36026  0.50845  0.33360  1.0000
  C   C104      1.0  0.36720  0.53683  0.33998  1.0000
  N   N80       1.0  0.34543  0.54309  0.33386  1.0000
  C   C105      1.0  0.31777  0.52255  0.31932  1.0000
  N   N81       1.0  0.31235  0.49521  0.31430  1.0000
  C   C106      1.0  0.16228  0.67747  0.32061  1.0000
  N   N82       1.0  0.15595  0.64956  0.33348  1.0000
  C   C107      1.0  0.17742  0.64267  0.34019  1.0000
  N   N83       1.0  0.20545  0.66448  0.33443  1.0000
  C   C108      1.0  0.21253  0.69214  0.32006  1.0000
  N   N84       1.0  0.19058  0.69751  0.31468  1.0000
  C   C109      1.0  0.11734  0.32763  0.35232  1.0000
  N   N85       1.0  0.08818  0.30910  0.34644  1.0000
  C   C110      1.0  0.06911  0.31922  0.34498  1.0000
  N   N86       1.0  0.08005  0.34837  0.34949  1.0000
  C   C111      1.0  0.10868  0.36740  0.35512  1.0000
  N   N87       1.0  0.12656  0.35628  0.35695  1.0000
  C   C112      1.0  0.68223  0.79168  0.35252  1.0000
  N   N88       1.0  0.70080  0.78110  0.34653  1.0000
  C   C113      1.0  0.69072  0.75191  0.34505  1.0000
  N   N89       1.0  0.66158  0.73367  0.34965  1.0000
  C   C114      1.0  0.64252  0.74322  0.35533  1.0000
  N   N90       1.0  0.65359  0.77220  0.35716  1.0000
  C   C115      1.0  0.21825  0.89254  0.35252  1.0000
  N   N91       1.0  0.22888  0.92170  0.34654  1.0000
  C   C116      1.0  0.25807  0.94078  0.34523  1.0000
  N   N92       1.0  0.27628  0.92985  0.34976  1.0000
  C   C117      1.0  0.26669  0.90122  0.35541  1.0000
  N   N93       1.0  0.23770  0.88334  0.35716  1.0000
  C   C118      1.0  0.89450  0.68020  0.35272  1.0000
  N   N94       1.0  0.92366  0.69877  0.34659  1.0000
  C   C119      1.0  0.94275  0.68868  0.34502  1.0000
  N   N95       1.0  0.93185  0.65954  0.34962  1.0000
  C   C120      1.0  0.90324  0.64048  0.35544  1.0000
  N   N96       1.0  0.88533  0.65156  0.35738  1.0000
  C   C121      1.0  0.32963  0.21624  0.35222  1.0000
  N   N97       1.0  0.31111  0.22689  0.34637  1.0000
  C   C122      1.0  0.32124  0.25608  0.34490  1.0000
  N   N98       1.0  0.35039  0.27427  0.34939  1.0000
  C   C123      1.0  0.36941  0.26466  0.35501  1.0000
  N   N99       1.0  0.35828  0.23567  0.35683  1.0000
  C   C124      1.0  0.79367  0.11538  0.35250  1.0000
  N   N100      1.0  0.78306  0.08622  0.34652  1.0000
  C   C125      1.0  0.75388  0.06713  0.34508  1.0000
  N   N101      1.0  0.73565  0.07804  0.34970  1.0000
  C   C126      1.0  0.74522  0.10667  0.35539  1.0000
  N   N102      1.0  0.77421  0.12456  0.35719  1.0000
  C   C127      1.0  0.32739  0.11110  0.33513  1.0000
  N   N103      1.0  0.30943  0.08191  0.34451  1.0000
  C   C128      1.0  0.31998  0.06320  0.34148  1.0000
  N   N104      1.0  0.34888  0.07466  0.32831  1.0000
  C   C129      1.0  0.36730  0.10325  0.31856  1.0000
  N   N105      1.0  0.35599  0.12093  0.32375  1.0000
  C   C130      1.0  0.79158  0.68243  0.33483  1.0000
  N   N106      1.0  0.78045  0.70046  0.34442  1.0000
  C   C131      1.0  0.75121  0.69000  0.34132  1.0000
  N   N107      1.0  0.73368  0.66112  0.32801  1.0000
  C   C132      1.0  0.74377  0.64264  0.31805  1.0000
  N   N108      1.0  0.77275  0.65385  0.32329  1.0000
  C   C133      1.0  0.89880  0.21826  0.33442  1.0000
  N   N109      1.0  0.92797  0.22949  0.34421  1.0000
  C   C134      1.0  0.94670  0.25874  0.34124  1.0000
  N   N110      1.0  0.93526  0.27621  0.32800  1.0000
  C   C135      1.0  0.90667  0.26604  0.31806  1.0000
  N   N111      1.0  0.88899  0.23705  0.32316  1.0000
  C   C136      1.0  0.68447  0.89681  0.33410  1.0000
  N   N112      1.0  0.70245  0.92597  0.34409  1.0000
  C   C137      1.0  0.69198  0.94474  0.34120  1.0000
  N   N113      1.0  0.66309  0.93337  0.32790  1.0000
  C   C138      1.0  0.64463  0.90479  0.31779  1.0000
  N   N114      1.0  0.65588  0.88706  0.32282  1.0000
  C   C139      1.0  0.22027  0.32542  0.33524  1.0000
  N   N115      1.0  0.23150  0.30747  0.34460  1.0000
  C   C140      1.0  0.26076  0.31802  0.34156  1.0000
  N   N116      1.0  0.27820  0.34692  0.32840  1.0000
  C   C141      1.0  0.26801  0.36533  0.31867  1.0000
  N   N117      1.0  0.23902  0.35402  0.32387  1.0000
  C   C142      1.0  0.11308  0.78964  0.33488  1.0000
  N   N118      1.0  0.08390  0.77846  0.34437  1.0000
  C   C143      1.0  0.06516  0.74921  0.34134  1.0000
  N   N119      1.0  0.07657  0.73172  0.32815  1.0000
  C   C144      1.0  0.10515  0.74186  0.31828  1.0000
  N   N120      1.0  0.12287  0.77085  0.32344  1.0000
  N   N121      1.0  0.15901  0.44400  0.39761  1.0000
  C   C145      1.0  0.14749  0.41519  0.40090  1.0000
  H   H49       1.0  0.15933  0.40696  0.42859  1.0000
  N   N122      1.0  0.56594  0.71686  0.39845  1.0000
  C   C146      1.0  0.59475  0.73413  0.40178  1.0000
  H   H50       1.0  0.60299  0.75418  0.42965  1.0000
  N   N123      1.0  0.29296  0.85090  0.39799  1.0000
  C   C147      1.0  0.27569  0.86244  0.40131  1.0000
  H   H51       1.0  0.25563  0.85062  0.42907  1.0000
  N   N124      1.0  0.85311  0.56392  0.39920  1.0000
  C   C148      1.0  0.86464  0.59274  0.40241  1.0000
  H   H52       1.0  0.85288  0.60099  0.43054  1.0000
  N   N125      1.0  0.44601  0.29091  0.39741  1.0000
  C   C149      1.0  0.41720  0.27363  0.40070  1.0000
  H   H53       1.0  0.40897  0.25355  0.42834  1.0000
  N   N126      1.0  0.71891  0.15695  0.39813  1.0000
  C   C150      1.0  0.73619  0.14541  0.40148  1.0000
  H   H54       1.0  0.75625  0.15725  0.42918  1.0000
  C   C151      1.0  0.45826  0.14182  0.31591  1.0000
  C   C152      1.0  0.39747  0.11485  0.31080  1.0000
  N   N127      1.0  0.41139  0.10176  0.34742  1.0000
  C   C153      1.0  0.44076  0.11356  0.35128  1.0000
  C   C154      1.0  0.45117  0.09761  0.39789  1.0000
  O   O13       1.0  0.43702  0.06863  0.38677  1.0000
  N   N128      1.0  0.47075  0.10884  0.46504  1.0000
  H   H55       1.0  0.47846  0.12866  0.48497  1.0000
  H   H56       1.0  0.47540  0.09642  0.50023  1.0000
  C   C155      1.0  0.69127  0.55171  0.31518  1.0000
  C   C156      1.0  0.72513  0.61248  0.31021  1.0000
  N   N129      1.0  0.69824  0.59859  0.34762  1.0000
  C   C157      1.0  0.68066  0.56922  0.35157  1.0000
  C   C158      1.0  0.65443  0.55879  0.39889  1.0000
  O   O14       1.0  0.63966  0.57306  0.38915  1.0000
  N   N130      1.0  0.64618  0.53913  0.46576  1.0000
  H   H57       1.0  0.65837  0.53147  0.48518  1.0000
  H   H58       1.0  0.62931  0.53462  0.50181  1.0000
  C   C159      1.0  0.86810  0.31843  0.31539  1.0000
  C   C160      1.0  0.89507  0.28462  0.31040  1.0000
  N   N131      1.0  0.90813  0.31159  0.34725  1.0000
  C   C161      1.0  0.89633  0.32916  0.35111  1.0000
  C   C162      1.0  0.91221  0.35547  0.39800  1.0000
  O   O15       1.0  0.94121  0.37031  0.38719  1.0000
  N   N132      1.0  0.90091  0.36375  0.46510  1.0000
  H   H59       1.0  0.88107  0.35162  0.48480  1.0000
  H   H60       1.0  0.91328  0.38078  0.50049  1.0000
  C   C163      1.0  0.55368  0.86627  0.31531  1.0000
  C   C164      1.0  0.61446  0.89324  0.31009  1.0000
  N   N133      1.0  0.60055  0.90625  0.34736  1.0000
  C   C165      1.0  0.57118  0.89444  0.35138  1.0000
  C   C166      1.0  0.56075  0.91028  0.39847  1.0000
  O   O16       1.0  0.57500  0.93931  0.38843  1.0000
  N   N134      1.0  0.54111  0.89893  0.46540  1.0000
  H   H61       1.0  0.53346  0.87909  0.48503  1.0000
  H   H62       1.0  0.53659  0.91131  0.50129  1.0000
  C   C167      1.0  0.32039  0.45629  0.31596  1.0000
  C   C168      1.0  0.28659  0.39551  0.31090  1.0000
  N   N135      1.0  0.31360  0.40943  0.34750  1.0000
  C   C169      1.0  0.33117  0.43880  0.35134  1.0000
  C   C170      1.0  0.35753  0.44923  0.39792  1.0000
  O   O17       1.0  0.37236  0.43507  0.38680  1.0000
  N   N136      1.0  0.36589  0.46881  0.46504  1.0000
  H   H63       1.0  0.35378  0.47652  0.48497  1.0000
  H   H64       1.0  0.38296  0.47347  0.50021  1.0000
  C   C171      1.0  0.14359  0.68936  0.31545  1.0000
  C   C172      1.0  0.11669  0.72323  0.31053  1.0000
  N   N137      1.0  0.10364  0.69630  0.34763  1.0000
  C   C173      1.0  0.11543  0.67872  0.35156  1.0000
  C   C174      1.0  0.09955  0.65242  0.39855  1.0000
  O   O18       1.0  0.07053  0.63768  0.38845  1.0000
  N   N138      1.0  0.11088  0.64409  0.46547  1.0000
  H   H65       1.0  0.13071  0.65627  0.48515  1.0000
  H   H66       1.0  0.09848  0.62719  0.50130  1.0000
  C   C175      1.0  0.24308  0.52878  0.33634  1.0000
  C   C176      1.0  0.29408  0.52713  0.31516  1.0000
  N   N139      1.0  0.29330  0.54819  0.36418  1.0000
  C   C177      1.0  0.26922  0.55056  0.37554  1.0000
  C   C178      1.0  0.27185  0.57258  0.43396  1.0000
  O   O19       1.0  0.29659  0.59837  0.43094  1.0000
  N   N140      1.0  0.25337  0.56798  0.50227  1.0000
  H   H67       1.0  0.23728  0.54886  0.51527  1.0000
  H   H68       1.0  0.25741  0.58335  0.54463  1.0000
  C   C179      1.0  0.48123  0.71634  0.33667  1.0000
  C   C180      1.0  0.48297  0.76904  0.31564  1.0000
  N   N141      1.0  0.46184  0.74718  0.36442  1.0000
  C   C181      1.0  0.45948  0.72074  0.37585  1.0000
  C   C182      1.0  0.43733  0.70126  0.43376  1.0000
  O   O20       1.0  0.41160  0.70033  0.43074  1.0000
  N   N142      1.0  0.44179  0.68730  0.50211  1.0000
  H   H69       1.0  0.46091  0.69039  0.51551  1.0000
  H   H70       1.0  0.42639  0.67605  0.54448  1.0000
  C   C183      1.0  0.29353  0.76678  0.33687  1.0000
  C   C184      1.0  0.24080  0.71585  0.31606  1.0000
  N   N143      1.0  0.26268  0.71655  0.36465  1.0000
  C   C185      1.0  0.28916  0.74060  0.37585  1.0000
  C   C186      1.0  0.30861  0.73792  0.43386  1.0000
  O   O21       1.0  0.30961  0.71315  0.43048  1.0000
  N   N144      1.0  0.32257  0.75635  0.50219  1.0000
  H   H71       1.0  0.31959  0.77245  0.51547  1.0000
  H   H72       1.0  0.33394  0.75227  0.54429  1.0000
  C   C187      1.0  0.76885  0.47930  0.33725  1.0000
  C   C188      1.0  0.71791  0.48109  0.31633  1.0000
  N   N145      1.0  0.71860  0.45988  0.36479  1.0000
  C   C189      1.0  0.74266  0.45749  0.37614  1.0000
  C   C190      1.0  0.73996  0.43526  0.43372  1.0000
  O   O22       1.0  0.71515  0.40953  0.43038  1.0000
  N   N146      1.0  0.75834  0.43961  0.50209  1.0000
  H   H73       1.0  0.77438  0.45871  0.51572  1.0000
  H   H74       1.0  0.75416  0.42415  0.54424  1.0000
  C   C191      1.0  0.53079  0.29163  0.33624  1.0000
  C   C192      1.0  0.52912  0.23896  0.31512  1.0000
  N   N147      1.0  0.55019  0.26081  0.36415  1.0000
  C   C193      1.0  0.55256  0.28725  0.37548  1.0000
  C   C194      1.0  0.57458  0.30665  0.43393  1.0000
  O   O23       1.0  0.60036  0.30768  0.43095  1.0000
  N   N148      1.0  0.56998  0.32052  0.50222  1.0000
  H   H75       1.0  0.55086  0.31750  0.51520  1.0000
  H   H76       1.0  0.58535  0.33186  0.54459  1.0000
  C   C195      1.0  0.71824  0.24106  0.33635  1.0000
  C   C196      1.0  0.77092  0.29204  0.31520  1.0000
  N   N149      1.0  0.74909  0.29128  0.36424  1.0000
  C   C197      1.0  0.72266  0.26720  0.37573  1.0000
  C   C198      1.0  0.70321  0.26983  0.43391  1.0000
  O   O24       1.0  0.70227  0.29463  0.43114  1.0000
  N   N150      1.0  0.68930  0.25137  0.50223  1.0000
  H   H77       1.0  0.69240  0.23534  0.51543  1.0000
  H   H78       1.0  0.67808  0.25551  0.54476  1.0000
  N   N151      1.0  0.19574  0.61361  0.39151  1.0000
  C   C199      1.0  0.19780  0.58975  0.40285  1.0000
  H   H79       1.0  0.21606  0.59190  0.43189  1.0000
  N   N152      1.0  0.39628  0.58418  0.39142  1.0000
  C   C200      1.0  0.42016  0.61008  0.40291  1.0000
  H   H80       1.0  0.41799  0.62622  0.43172  1.0000
  N   N153      1.0  0.42577  0.81405  0.39127  1.0000
  C   C201      1.0  0.39984  0.81197  0.40260  1.0000
  H   H81       1.0  0.38372  0.79367  0.43151  1.0000
  N   N154      1.0  0.81600  0.39423  0.39117  1.0000
  C   C202      1.0  0.81395  0.41809  0.40262  1.0000
  H   H82       1.0  0.79562  0.41590  0.43130  1.0000
  N   N155      1.0  0.61563  0.42380  0.39137  1.0000
  C   C203      1.0  0.59177  0.39789  0.40273  1.0000
  H   H83       1.0  0.59393  0.38177  0.43175  1.0000
  N   N156      1.0  0.58612  0.19376  0.39167  1.0000
  C   C204      1.0  0.61201  0.19578  0.40318  1.0000
  H   H84       1.0  0.62814  0.21407  0.43208  1.0000
  C   C205      1.0  0.97731  0.27242  0.35335  1.0000
  C   C206      1.0  0.03843  0.30165  0.34716  1.0000
  N   N157      1.0  0.02337  0.31368  0.38146  1.0000
  C   C207      1.0  0.99427  0.30096  0.38808  1.0000
  C   C208      1.0  0.98407  0.31746  0.43333  1.0000
  O   O25       1.0  0.99867  0.34648  0.42309  1.0000
  N   N158      1.0  0.96306  0.30617  0.49635  1.0000
  H   H85       1.0  0.95381  0.28593  0.51324  1.0000
  H   H86       1.0  0.95793  0.31859  0.52952  1.0000
  C   C209      1.0  0.73757  0.70697  0.35361  1.0000
  C   C210      1.0  0.70833  0.73885  0.34735  1.0000
  N   N159      1.0  0.69637  0.71182  0.38211  1.0000
  C   C211      1.0  0.70911  0.69546  0.38886  1.0000
  C   C212      1.0  0.69269  0.66881  0.43441  1.0000
  O   O26       1.0  0.66363  0.65445  0.42511  1.0000
  N   N160      1.0  0.70407  0.65910  0.49711  1.0000
  H   H87       1.0  0.72435  0.67012  0.51368  1.0000
  H   H88       1.0  0.69169  0.64166  0.53078  1.0000
  C   C213      1.0  0.30306  0.03258  0.35341  1.0000
  C   C214      1.0  0.27116  0.97146  0.34728  1.0000
  N   N161      1.0  0.29825  0.98652  0.38155  1.0000
  C   C215      1.0  0.31464  0.01563  0.38815  1.0000
  C   C216      1.0  0.34133  0.02582  0.43341  1.0000
  O   O27       1.0  0.35578  0.01124  0.42312  1.0000
  N   N162      1.0  0.35103  0.04680  0.49653  1.0000
  H   H89       1.0  0.34002  0.05603  0.51347  1.0000
  H   H90       1.0  0.36857  0.05193  0.52971  1.0000
  C   C217      1.0  0.03455  0.73554  0.35352  1.0000
  C   C218      1.0  0.97343  0.70629  0.34724  1.0000
  N   N163      1.0  0.98849  0.69431  0.38185  1.0000
  C   C219      1.0  0.01760  0.70705  0.38860  1.0000
  C   C220      1.0  0.02782  0.69061  0.43401  1.0000
  O   O28       1.0  0.01315  0.66155  0.42446  1.0000
  N   N164      1.0  0.04888  0.70195  0.49687  1.0000
  H   H91       1.0  0.05811  0.72221  0.51362  1.0000
  H   H92       1.0  0.05394  0.68955  0.53044  1.0000
  C   C221      1.0  0.27446  0.30110  0.35342  1.0000
  C   C222      1.0  0.30367  0.26919  0.34713  1.0000
  N   N165      1.0  0.31572  0.29629  0.38136  1.0000
  C   C223      1.0  0.30301  0.31268  0.38803  1.0000
  C   C224      1.0  0.31953  0.33938  0.43323  1.0000
  O   O29       1.0  0.34855  0.35382  0.42280  1.0000
  N   N166      1.0  0.30829  0.34909  0.49643  1.0000
  H   H93       1.0  0.28806  0.33808  0.51346  1.0000
  H   H94       1.0  0.32072  0.36663  0.52956  1.0000
  C   C225      1.0  0.70894  0.97533  0.35359  1.0000
  C   C226      1.0  0.74081  0.03646  0.34735  1.0000
  N   N167      1.0  0.71377  0.02139  0.38205  1.0000
  C   C227      1.0  0.69741  0.99228  0.38878  1.0000
  C   C228      1.0  0.67075  0.98205  0.43425  1.0000
  O   O30       1.0  0.65638  0.99674  0.42489  1.0000
  N   N168      1.0  0.66103  0.96095  0.49695  1.0000
  H   H95       1.0  0.67204  0.95169  0.51356  1.0000
  H   H96       1.0  0.64357  0.95588  0.53056  1.0000
  C   C229      1.0  0.13917  0.31984  0.36218  1.0000
  C   C230      1.0  0.19103  0.31792  0.34886  1.0000
  N   N169      1.0  0.18581  0.33164  0.41678  1.0000
  C   C231      1.0  0.16109  0.33258  0.42924  1.0000
  C   C232      1.0  0.16033  0.34793  0.50608  1.0000
  O   O31       1.0  0.18557  0.36926  0.53959  1.0000
  N   N170      1.0  0.13601  0.34099  0.55267  1.0000
  H   H97       1.0  0.11762  0.32417  0.53742  1.0000
  H   H98       1.0  0.13700  0.35145  0.60711  1.0000
  C   C233      1.0  0.68993  0.82128  0.36232  1.0000
  C   C234      1.0  0.69175  0.87494  0.34827  1.0000
  N   N171      1.0  0.67794  0.85605  0.41620  1.0000
  C   C235      1.0  0.67702  0.83041  0.42897  1.0000
  C   C236      1.0  0.66160  0.81430  0.50572  1.0000
  O   O32       1.0  0.64026  0.81824  0.53898  1.0000
  N   N172      1.0  0.66851  0.79695  0.55260  1.0000
  H   H99       1.0  0.68542  0.79549  0.53775  1.0000
  H   H100      1.0  0.65808  0.78759  0.60719  1.0000
  C   C237      1.0  0.18863  0.87068  0.36210  1.0000
  C   C238      1.0  0.13485  0.81886  0.34859  1.0000
  N   N173      1.0  0.15379  0.82402  0.41646  1.0000
  C   C239      1.0  0.17946  0.84872  0.42904  1.0000
  C   C240      1.0  0.19555  0.84942  0.50585  1.0000
  O   O33       1.0  0.19165  0.82416  0.53910  1.0000
  N   N174      1.0  0.21290  0.87370  0.55268  1.0000
  H   H101      1.0  0.21444  0.89209  0.53761  1.0000
  H   H102      1.0  0.22235  0.87267  0.60709  1.0000
  C   C241      1.0  0.87263  0.68793  0.36264  1.0000
  C   C242      1.0  0.82075  0.68974  0.34877  1.0000
  N   N175      1.0  0.82592  0.67602  0.41678  1.0000
  C   C243      1.0  0.85064  0.67511  0.42946  1.0000
  C   C244      1.0  0.85139  0.65976  0.50631  1.0000
  O   O34       1.0  0.82614  0.63847  0.53989  1.0000
  N   N176      1.0  0.87570  0.66668  0.55298  1.0000
  H   H103      1.0  0.89405  0.68357  0.53789  1.0000
  H   H104      1.0  0.87467  0.65631  0.60766  1.0000
  C   C245      1.0  0.32183  0.18663  0.36209  1.0000
  C   C246      1.0  0.31990  0.13283  0.34875  1.0000
  N   N177      1.0  0.33362  0.15177  0.41668  1.0000
  C   C247      1.0  0.33457  0.17744  0.42915  1.0000
  C   C248      1.0  0.34992  0.19354  0.50599  1.0000
  O   O35       1.0  0.37124  0.18962  0.53950  1.0000
  N   N178      1.0  0.34299  0.21093  0.55258  1.0000
  H   H105      1.0  0.32617  0.21250  0.53732  1.0000
  H   H106      1.0  0.35345  0.22040  0.60701  1.0000
  C   C249      1.0  0.82327  0.13725  0.36229  1.0000
  C   C250      1.0  0.87701  0.18909  0.34853  1.0000
  N   N179      1.0  0.85811  0.18390  0.41654  1.0000
  C   C251      1.0  0.83246  0.15920  0.42923  1.0000
  C   C252      1.0  0.81638  0.15846  0.50614  1.0000
  O   O36       1.0  0.82038  0.18371  0.53980  1.0000
  N   N180      1.0  0.79899  0.13415  0.55278  1.0000
  H   H107      1.0  0.79750  0.11578  0.53763  1.0000
  H   H108      1.0  0.78966  0.13517  0.60749  1.0000
