data_image0
_chemical_formula_structural       C2NC2O2HC2NC2O2HNCHNCHNCHNCHC2NC2O2HC2NC2O2HC2NC2O2HC2NC2O2HNCHNCHNCHNCHC2NC2O2HC2NC2O2HC2NC2O2HC2NC2O2HCNCNCNCNCNCNCNCNCNCNCNCNCNCNCNCNCNCNCNCNCNCNCNCNCNCNCNCNCNCNCNCNCNCNCNCN2CHNCHC2NC2O2HC2NC2O2HC2NC2O2HC2NC2O2HNCHNCHNCHNCHC2NC2O2HC2NC2O2HC2NC2O2HC2NC2O2HNCHNCHNCHNCH
_chemical_formula_sum              "C126 N72 O36 H36"
_cell_length_a       33.7912
_cell_length_b       33.6304
_cell_length_c       14.8939
_cell_angle_alpha    90
_cell_angle_beta     90
_cell_angle_gamma    90.2808

_space_group_name_H-M_alt    "P 1"
_space_group_IT_number       1

loop_
  _space_group_symop_operation_xyz
  'x, y, z'

loop_
  _atom_site_type_symbol
  _atom_site_label
  _atom_site_symmetry_multiplicity
  _atom_site_fract_x
  _atom_site_fract_y
  _atom_site_fract_z
  _atom_site_occupancy
  C   C1        1.0  0.96812  0.52839  0.32828  1.0000
  C   C2        1.0  0.02999  0.47209  0.33604  1.0000
  N   N1        1.0  0.99224  0.46172  0.31545  1.0000
  C   C3        1.0  0.96118  0.48725  0.31058  1.0000
  C   C4        1.0  0.92552  0.47115  0.28200  1.0000
  O   O1        1.0  0.91481  0.43981  0.31602  1.0000
  O   O2        1.0  0.91410  0.47634  0.20400  1.0000
  H   H1        1.0  0.92161  0.49621  0.16869  1.0000
  C   C5        1.0  0.47162  0.97897  0.32609  1.0000
  C   C6        1.0  0.52886  0.04052  0.33332  1.0000
  N   N2        1.0  0.53795  0.00303  0.30740  1.0000
  C   C7        1.0  0.51192  0.97215  0.30205  1.0000
  C   C8        1.0  0.52665  0.93693  0.26741  1.0000
  O   O3        1.0  0.55968  0.92641  0.29073  1.0000
  O   O4        1.0  0.51703  0.92529  0.19165  1.0000
  H   H2        1.0  0.49562  0.93293  0.16207  1.0000
  N   N3        1.0  0.02968  0.32028  0.33059  1.0000
  C   C9        1.0  0.01699  0.28177  0.33018  1.0000
  H   H3        1.0  0.98806  0.27563  0.31583  1.0000
  N   N4        1.0  0.96830  0.68060  0.33337  1.0000
  C   C10       1.0  0.98122  0.71904  0.33482  1.0000
  H   H4        1.0  0.01085  0.72478  0.33118  1.0000
  N   N5        1.0  0.67902  0.03554  0.32915  1.0000
  C   C11       1.0  0.71666  0.02108  0.32979  1.0000
  H   H5        1.0  0.72129  0.99158  0.31794  1.0000
  N   N6        1.0  0.31921  0.97509  0.33661  1.0000
  C   C12       1.0  0.28062  0.98661  0.33808  1.0000
  H   H6        1.0  0.27409  0.01614  0.33388  1.0000
  C   C13       1.0  0.43529  0.83897  0.34107  1.0000
  C   C14       1.0  0.44841  0.75623  0.33913  1.0000
  N   N7        1.0  0.47859  0.78304  0.33807  1.0000
  C   C15       1.0  0.47427  0.82321  0.33938  1.0000
  C   C16       1.0  0.50859  0.84564  0.33878  1.0000
  O   O5        1.0  0.51999  0.85752  0.41189  1.0000
  O   O6        1.0  0.53559  0.83862  0.28506  1.0000
  H   H7        1.0  0.53193  0.82882  0.23044  1.0000
  C   C17       1.0  0.57081  0.17879  0.33076  1.0000
  C   C18       1.0  0.54674  0.25900  0.32803  1.0000
  N   N8        1.0  0.58466  0.24798  0.31217  1.0000
  C   C19       1.0  0.59833  0.21006  0.31304  1.0000
  C   C20       1.0  0.63769  0.20506  0.28983  1.0000
  O   O7        1.0  0.66201  0.22783  0.32271  1.0000
  O   O8        1.0  0.64702  0.19243  0.21478  1.0000
  H   H8        1.0  0.63134  0.17843  0.17892  1.0000
  C   C21       1.0  0.82897  0.56725  0.33304  1.0000
  C   C22       1.0  0.74611  0.55616  0.32778  1.0000
  N   N9        1.0  0.77173  0.52516  0.32943  1.0000
  C   C23       1.0  0.81188  0.52852  0.33236  1.0000
  C   C24       1.0  0.83309  0.49353  0.33515  1.0000
  O   O9        1.0  0.84258  0.48241  0.41015  1.0000
  O   O10       1.0  0.82630  0.46654  0.28081  1.0000
  H   H9        1.0  0.81813  0.47038  0.22494  1.0000
  C   C25       1.0  0.16842  0.43332  0.33245  1.0000
  C   C26       1.0  0.24839  0.45705  0.33521  1.0000
  N   N10       1.0  0.23695  0.41968  0.31264  1.0000
  C   C27       1.0  0.19909  0.40611  0.31008  1.0000
  C   C28       1.0  0.19372  0.36770  0.27937  1.0000
  O   O11       1.0  0.21774  0.34227  0.30141  1.0000
  O   O12       1.0  0.17653  0.36389  0.20653  1.0000
  H   H10       1.0  0.17345  0.34093  0.17808  1.0000
  N   N11       1.0  0.11957  0.11337  0.33551  1.0000
  C   C29       1.0  0.14559  0.08249  0.33140  1.0000
  H   H11       1.0  0.16761  0.08282  0.28448  1.0000
  N   N12       1.0  0.87852  0.88816  0.33012  1.0000
  C   C30       1.0  0.85216  0.91882  0.32685  1.0000
  H   H12       1.0  0.83056  0.91882  0.27897  1.0000
  N   N13       1.0  0.88706  0.12063  0.32952  1.0000
  C   C31       1.0  0.91820  0.14655  0.32558  1.0000
  H   H13       1.0  0.91925  0.16732  0.27566  1.0000
  N   N14       1.0  0.11164  0.88035  0.32838  1.0000
  C   C32       1.0  0.08027  0.85468  0.32333  1.0000
  H   H14       1.0  0.07919  0.83413  0.27296  1.0000
  C   C33       1.0  0.40649  0.61890  0.29218  1.0000
  C   C34       1.0  0.35794  0.55137  0.30122  1.0000
  N   N15       1.0  0.38817  0.55456  0.24172  1.0000
  C   C35       1.0  0.41212  0.58662  0.23189  1.0000
  C   C36       1.0  0.44125  0.58474  0.16601  1.0000
  O   O13       1.0  0.45702  0.55287  0.15008  1.0000
  O   O14       1.0  0.44392  0.60966  0.10529  1.0000
  H   H15       1.0  0.43135  0.63270  0.10408  1.0000
  C   C37       1.0  0.58674  0.39651  0.27734  1.0000
  C   C38       1.0  0.63531  0.46434  0.28588  1.0000
  N   N16       1.0  0.60384  0.46174  0.22963  1.0000
  C   C39       1.0  0.57979  0.42969  0.22024  1.0000
  C   C40       1.0  0.54941  0.43231  0.15747  1.0000
  O   O15       1.0  0.53358  0.46441  0.14463  1.0000
  O   O16       1.0  0.54567  0.40816  0.09544  1.0000
  H   H16       1.0  0.55815  0.38512  0.09166  1.0000
  C   C41       1.0  0.61043  0.60167  0.28198  1.0000
  C   C42       1.0  0.54261  0.64892  0.29481  1.0000
  N   N17       1.0  0.54646  0.62019  0.23154  1.0000
  C   C43       1.0  0.57879  0.59710  0.21971  1.0000
  C   C44       1.0  0.57788  0.56946  0.15009  1.0000
  O   O17       1.0  0.54637  0.55400  0.12936  1.0000
  O   O18       1.0  0.60405  0.56782  0.09223  1.0000
  H   H17       1.0  0.62703  0.58054  0.09467  1.0000
  C   C45       1.0  0.38352  0.41436  0.28773  1.0000
  C   C46       1.0  0.45091  0.36644  0.29170  1.0000
  N   N18       1.0  0.44632  0.39601  0.23065  1.0000
  C   C47       1.0  0.41408  0.41955  0.22310  1.0000
  C   C48       1.0  0.41398  0.44813  0.15548  1.0000
  O   O19       1.0  0.44529  0.46314  0.13174  1.0000
  O   O20       1.0  0.38699  0.45049  0.09971  1.0000
  H   H18       1.0  0.36387  0.43809  0.10357  1.0000
  C   C49       1.0  0.12742  0.42368  0.33612  1.0000
  N   N19       1.0  0.09870  0.45188  0.33618  1.0000
  C   C50       1.0  0.05949  0.44217  0.33860  1.0000
  N   N20       1.0  0.04937  0.40276  0.34201  1.0000
  C   C51       1.0  0.07708  0.37343  0.34467  1.0000
  N   N21       1.0  0.11544  0.38524  0.34099  1.0000
  C   C52       1.0  0.87017  0.57675  0.33338  1.0000
  N   N22       1.0  0.89942  0.54925  0.33055  1.0000
  C   C53       1.0  0.93864  0.55883  0.32986  1.0000
  N   N23       1.0  0.94825  0.59840  0.33330  1.0000
  C   C54       1.0  0.92021  0.62756  0.33612  1.0000
  N   N24       1.0  0.88185  0.61535  0.33567  1.0000
  C   C55       1.0  0.57995  0.13746  0.33424  1.0000
  N   N25       1.0  0.55104  0.10913  0.33437  1.0000
  C   C56       1.0  0.55944  0.06957  0.33590  1.0000
  N   N26       1.0  0.59832  0.05856  0.33815  1.0000
  C   C57       1.0  0.62844  0.08566  0.34034  1.0000
  N   N27       1.0  0.61794  0.12458  0.33765  1.0000
  C   C58       1.0  0.42484  0.87996  0.33923  1.0000
  N   N28       1.0  0.45156  0.91004  0.33363  1.0000
  C   C59       1.0  0.44135  0.94911  0.33040  1.0000
  N   N29       1.0  0.40181  0.95778  0.33448  1.0000
  C   C60       1.0  0.37333  0.92876  0.33988  1.0000
  N   N30       1.0  0.38624  0.89059  0.34169  1.0000
  C   C61       1.0  0.98892  0.15721  0.37184  1.0000
  N   N31       1.0  0.99696  0.19641  0.35785  1.0000
  C   C62       1.0  0.03517  0.20998  0.35435  1.0000
  N   N32       1.0  0.06530  0.18328  0.36498  1.0000
  C   C63       1.0  0.05820  0.14399  0.37926  1.0000
  N   N33       1.0  0.01989  0.13228  0.38230  1.0000
  C   C64       1.0  0.00929  0.84389  0.36908  1.0000
  N   N34       1.0  0.00103  0.80473  0.35463  1.0000
  C   C65       1.0  0.96278  0.79123  0.34975  1.0000
  N   N35       1.0  0.93276  0.81814  0.35941  1.0000
  C   C66       1.0  0.93993  0.85737  0.37441  1.0000
  N   N36       1.0  0.97831  0.86893  0.37891  1.0000
  C   C67       1.0  0.84146  0.99053  0.37062  1.0000
  N   N37       1.0  0.80239  0.99863  0.35634  1.0000
  C   C68       1.0  0.78922  0.03710  0.35229  1.0000
  N   N38       1.0  0.81618  0.06729  0.36225  1.0000
  C   C69       1.0  0.85511  0.06023  0.37660  1.0000
  N   N39       1.0  0.86646  0.02183  0.38048  1.0000
  C   C70       1.0  0.15602  0.01066  0.37324  1.0000
  N   N40       1.0  0.19514  0.00350  0.35877  1.0000
  C   C71       1.0  0.20928  0.96548  0.35351  1.0000
  N   N41       1.0  0.18306  0.93450  0.36269  1.0000
  C   C72       1.0  0.14384  0.94062  0.37754  1.0000
  N   N42       1.0  0.13170  0.97881  0.38233  1.0000
  C   C73       1.0  0.50433  0.66433  0.30784  1.0000
  N   N43       1.0  0.49541  0.70299  0.32403  1.0000
  C   C74       1.0  0.45698  0.71522  0.33110  1.0000
  N   N44       1.0  0.42733  0.68777  0.32141  1.0000
  C   C75       1.0  0.43543  0.64898  0.30443  1.0000
  N   N45       1.0  0.47390  0.63843  0.29814  1.0000
  C   C76       1.0  0.48926  0.35059  0.30053  1.0000
  N   N46       1.0  0.49832  0.31191  0.31664  1.0000
  C   C77       1.0  0.53683  0.29973  0.32002  1.0000
  N   N47       1.0  0.56628  0.32728  0.30733  1.0000
  C   C78       1.0  0.55809  0.36609  0.29079  1.0000
  N   N48       1.0  0.51952  0.37648  0.28810  1.0000
  C   C79       1.0  0.65246  0.50243  0.29675  1.0000
  N   N49       1.0  0.69129  0.51041  0.31272  1.0000
  C   C80       1.0  0.70495  0.54869  0.31928  1.0000
  N   N50       1.0  0.67866  0.57921  0.30986  1.0000
  C   C81       1.0  0.63972  0.57212  0.29328  1.0000
  N   N51       1.0  0.62785  0.53376  0.28738  1.0000
  C   C82       1.0  0.34124  0.51319  0.31186  1.0000
  N   N52       1.0  0.30234  0.50494  0.32677  1.0000
  C   C83       1.0  0.28916  0.46648  0.33014  1.0000
  N   N53       1.0  0.31567  0.43634  0.31816  1.0000
  C   C84       1.0  0.35456  0.44381  0.30312  1.0000
  N   N54       1.0  0.36619  0.48226  0.30009  1.0000
  N   N55       1.0  0.00623  0.53881  0.34774  1.0000
  C   C85       1.0  0.03702  0.51296  0.35147  1.0000
  H   H19       1.0  0.06456  0.52346  0.36712  1.0000
  N   N56       1.0  0.46234  0.01688  0.35054  1.0000
  C   C86       1.0  0.48869  0.04760  0.35382  1.0000
  H   H20       1.0  0.47923  0.07498  0.37386  1.0000
  C   C87       1.0  0.06752  0.33203  0.34916  1.0000
  C   C88       1.0  0.04424  0.25117  0.34886  1.0000
  N   N57       1.0  0.08162  0.26303  0.36874  1.0000
  C   C89       1.0  0.09491  0.30120  0.36986  1.0000
  C   C90       1.0  0.13374  0.30678  0.39775  1.0000
  O   O21       1.0  0.15861  0.28382  0.36864  1.0000
  O   O22       1.0  0.14148  0.32044  0.47276  1.0000
  H   H21       1.0  0.12498  0.33457  0.50608  1.0000
  C   C91       1.0  0.92958  0.66915  0.33888  1.0000
  C   C92       1.0  0.95338  0.75005  0.34250  1.0000
  N   N58       1.0  0.91489  0.73862  0.34853  1.0000
  C   C93       1.0  0.90144  0.70047  0.34645  1.0000
  C   C94       1.0  0.86095  0.69544  0.35674  1.0000
  O   O23       1.0  0.83953  0.71230  0.30290  1.0000
  O   O24       1.0  0.84651  0.69037  0.43216  1.0000
  H   H22       1.0  0.85944  0.68069  0.47905  1.0000
  C   C95       1.0  0.66920  0.07433  0.34442  1.0000
  C   C96       1.0  0.74852  0.04737  0.34629  1.0000
  N   N59       1.0  0.73851  0.08570  0.36279  1.0000
  C   C97       1.0  0.70131  0.10074  0.36274  1.0000
  C   C98       1.0  0.69802  0.14039  0.38690  1.0000
  O   O25       1.0  0.72160  0.16404  0.35443  1.0000
  O   O26       1.0  0.68589  0.14994  0.46220  1.0000
  H   H23       1.0  0.67137  0.13460  0.49778  1.0000
  C   C99       1.0  0.33168  0.93666  0.34275  1.0000
  C   C100      1.0  0.25051  0.95753  0.34636  1.0000
  N   N60       1.0  0.26293  0.91932  0.35287  1.0000
  C   C101      1.0  0.30126  0.90726  0.35090  1.0000
  C   C102      1.0  0.30729  0.86679  0.36144  1.0000
  O   O27       1.0  0.29156  0.84469  0.30681  1.0000
  O   O28       1.0  0.31199  0.85247  0.43710  1.0000
  H   H24       1.0  0.32092  0.86579  0.48437  1.0000
  N   N61       1.0  0.40510  0.81192  0.34219  1.0000
  C   C103      1.0  0.40979  0.77190  0.34177  1.0000
  H   H25       1.0  0.38529  0.75402  0.34133  1.0000
  N   N62       1.0  0.53256  0.18980  0.34552  1.0000
  C   C104      1.0  0.51948  0.22795  0.34475  1.0000
  H   H26       1.0  0.49021  0.23344  0.35583  1.0000
  N   N63       1.0  0.80308  0.59824  0.33153  1.0000
  C   C105      1.0  0.76311  0.59455  0.32932  1.0000
  H   H27       1.0  0.74623  0.61962  0.32721  1.0000
  N   N64       1.0  0.17973  0.47117  0.35358  1.0000
  C   C106      1.0  0.21790  0.48413  0.35521  1.0000
  H   H28       1.0  0.22385  0.51303  0.37141  1.0000
  C   C107      1.0  0.08767  0.11447  0.39172  1.0000
  C   C108      1.0  0.13808  0.04831  0.38371  1.0000
  N   N65       1.0  0.10680  0.05014  0.44068  1.0000
  C   C109      1.0  0.08192  0.08135  0.44981  1.0000
  C   C110      1.0  0.05202  0.07812  0.51369  1.0000
  O   O29       1.0  0.03698  0.04553  0.52713  1.0000
  O   O30       1.0  0.04850  0.10212  0.57597  1.0000
  H   H29       1.0  0.06058  0.12551  0.57906  1.0000
  C   C111      1.0  0.91028  0.88679  0.38678  1.0000
  C   C112      1.0  0.85917  0.95265  0.38065  1.0000
  N   N66       1.0  0.89037  0.95055  0.43790  1.0000
  C   C113      1.0  0.91553  0.91952  0.44617  1.0000
  C   C114      1.0  0.94530  0.92270  0.51033  1.0000
  O   O31       1.0  0.96105  0.95502  0.52280  1.0000
  O   O32       1.0  0.94874  0.89850  0.57228  1.0000
  H   H30       1.0  0.93637  0.87527  0.57540  1.0000
  C   C115      1.0  0.88436  0.09004  0.38946  1.0000
  C   C116      1.0  0.95102  0.13992  0.38196  1.0000
  N   N67       1.0  0.94767  0.10991  0.44244  1.0000
  C   C117      1.0  0.91597  0.08540  0.45156  1.0000
  C   C118      1.0  0.91717  0.05679  0.51907  1.0000
  O   O33       1.0  0.94906  0.04287  0.54113  1.0000
  O   O34       1.0  0.89112  0.05412  0.57711  1.0000
  H   H31       1.0  0.86777  0.06592  0.57485  1.0000
  C   C119      1.0  0.11456  0.91053  0.38937  1.0000
  C   C120      1.0  0.04736  0.86102  0.37975  1.0000
  N   N68       1.0  0.05088  0.89065  0.44116  1.0000
  C   C121      1.0  0.08278  0.91487  0.45131  1.0000
  C   C122      1.0  0.08151  0.94303  0.51983  1.0000
  O   O35       1.0  0.04970  0.95751  0.54059  1.0000
  O   O36       1.0  0.10755  0.94544  0.57791  1.0000
  H   H32       1.0  0.13075  0.93334  0.57580  1.0000
  N   N69       1.0  0.37562  0.61639  0.35102  1.0000
  C   C123      1.0  0.35029  0.58478  0.35558  1.0000
  H   H33       1.0  0.32927  0.58381  0.40475  1.0000
  N   N70       1.0  0.61890  0.39845  0.33269  1.0000
  C   C124      1.0  0.64418  0.43017  0.33676  1.0000
  H   H34       1.0  0.66638  0.43039  0.38323  1.0000
  N   N71       1.0  0.60708  0.63089  0.34502  1.0000
  C   C125      1.0  0.57534  0.65560  0.35165  1.0000
  H   H35       1.0  0.57383  0.67536  0.40354  1.0000
  N   N72       1.0  0.38749  0.38424  0.34834  1.0000
  C   C126      1.0  0.41900  0.35909  0.35047  1.0000
  H   H36       1.0  0.42126  0.33879  0.40114  1.0000
