data_image0
_chemical_formula_structural       C2NC2HCHC3NC2HCHC7NC4HC6NC4H2CNC2HNH3CHNH2C9H4NH2C3H2CHC2HCN2C2HNH3C3HNH2CHC7HCH4NH2C3H2CH2CNC3HNH2CHCHNH2C13H4N2C3H2CHC3H2CHC2HCN2C3HNH2CHC3HNH2CHC11HCH4N2C3H2CHC3H2CH
_chemical_formula_sum              "C128 N24 H80"
_cell_length_a       31.6908
_cell_length_b       31.6908
_cell_length_c       14.8474
_cell_angle_alpha    90
_cell_angle_beta     90
_cell_angle_gamma    90

_space_group_name_H-M_alt    "P 1"
_space_group_IT_number       1

loop_
  _space_group_symop_operation_xyz
  'x, y, z'

loop_
  _atom_site_type_symbol
  _atom_site_label
  _atom_site_symmetry_multiplicity
  _atom_site_fract_x
  _atom_site_fract_y
  _atom_site_fract_z
  _atom_site_occupancy
  C   C1        1.0  0.49245  0.01783  0.33854  1.0000
  C   C2        1.0  0.41690  0.03818  0.33029  1.0000
  N   N1        1.0  0.37412  0.03318  0.33507  1.0000
  C   C3        1.0  0.28305  0.03513  0.29526  1.0000
  C   C4        1.0  0.23895  0.03512  0.27752  1.0000
  H   H1        1.0  0.15455  0.02209  0.26352  1.0000
  C   C5        1.0  0.07817  0.04031  0.34415  1.0000
  H   H2        1.0  0.10816  0.05073  0.35366  1.0000
  C   C6        1.0  0.44876  0.00650  0.33699  1.0000
  C   C7        1.0  0.99244  0.01783  0.33854  1.0000
  C   C8        1.0  0.91690  0.03818  0.33029  1.0000
  N   N2        1.0  0.87412  0.03318  0.33507  1.0000
  C   C9        1.0  0.78305  0.03513  0.29526  1.0000
  C   C10       1.0  0.73895  0.03512  0.27752  1.0000
  H   H3        1.0  0.65455  0.02209  0.26352  1.0000
  C   C11       1.0  0.57817  0.04031  0.34415  1.0000
  H   H4        1.0  0.60816  0.05073  0.35366  1.0000
  C   C12       1.0  0.94876  0.00650  0.33699  1.0000
  C   C13       1.0  0.00771  0.29721  0.31587  1.0000
  C   C14       1.0  0.00961  0.34164  0.30440  1.0000
  C   C15       1.0  0.04714  0.07140  0.33727  1.0000
  C   C16       1.0  0.02461  0.48566  0.34057  1.0000
  C   C17       1.0  0.01333  0.44198  0.34189  1.0000
  C   C18       1.0  0.04505  0.41007  0.34659  1.0000
  N   N3        1.0  0.03985  0.36739  0.33881  1.0000
  C   C19       1.0  0.03855  0.27725  0.37034  1.0000
  C   C20       1.0  0.03775  0.23357  0.38669  1.0000
  C   C21       1.0  0.00596  0.20761  0.34969  1.0000
  C   C22       1.0  0.00670  0.16363  0.36552  1.0000
  H   H5        1.0  0.02971  0.15216  0.40691  1.0000
  C   C23       1.0  0.00771  0.79721  0.31587  1.0000
  C   C24       1.0  0.00961  0.84164  0.30440  1.0000
  C   C25       1.0  0.04714  0.57140  0.33727  1.0000
  C   C26       1.0  0.02461  0.98566  0.34057  1.0000
  C   C27       1.0  0.01333  0.94198  0.34189  1.0000
  C   C28       1.0  0.04505  0.91007  0.34659  1.0000
  N   N4        1.0  0.03985  0.86739  0.33881  1.0000
  C   C29       1.0  0.03855  0.77725  0.37034  1.0000
  C   C30       1.0  0.03775  0.73357  0.38669  1.0000
  C   C31       1.0  0.00596  0.70761  0.34969  1.0000
  C   C32       1.0  0.00670  0.66363  0.36552  1.0000
  H   H6        1.0  0.02971  0.65216  0.40691  1.0000
  H   H7        1.0  0.40682  0.10347  0.31674  1.0000
  C   C33       1.0  0.06829  0.99694  0.34191  1.0000
  N   N5        1.0  0.14289  0.47042  0.33879  1.0000
  C   C34       1.0  0.97516  0.22722  0.29523  1.0000
  C   C35       1.0  0.97517  0.27132  0.27749  1.0000
  H   H8        1.0  0.95202  0.20881  0.26739  1.0000
  N   N6        1.0  0.94329  0.28610  0.22428  1.0000
  H   H9        1.0  0.92186  0.26727  0.19987  1.0000
  H   H10       1.0  0.94034  0.31550  0.20817  1.0000
  H   H11       1.0  0.98818  0.35573  0.26354  1.0000
  C   C36       1.0  0.21306  0.00257  0.31589  1.0000
  H   H12       1.0  0.30146  0.05828  0.26743  1.0000
  N   N7        1.0  0.22416  0.06701  0.22436  1.0000
  H   H13       1.0  0.24299  0.08845  0.19996  1.0000
  H   H14       1.0  0.19476  0.06997  0.20829  1.0000
  C   C37       1.0  0.16863  0.00067  0.30440  1.0000
  C   C38       1.0  0.44876  0.50650  0.33699  1.0000
  C   C39       1.0  0.42970  0.08057  0.32022  1.0000
  C   C40       1.0  0.47209  0.09338  0.33036  1.0000
  C   C41       1.0  0.50377  0.06151  0.33702  1.0000
  C   C42       1.0  0.43887  0.46313  0.33720  1.0000
  C   C43       1.0  0.08751  0.42275  0.35603  1.0000
  C   C44       1.0  0.10020  0.46521  0.34653  1.0000
  C   C45       1.0  0.46996  0.43210  0.34405  1.0000
  H   H15       1.0  0.11044  0.39986  0.35748  1.0000
  H   H16       1.0  0.45954  0.40212  0.35368  1.0000
  H   H17       1.0  0.40887  0.45258  0.32940  1.0000
  H   H18       1.0  0.05769  0.10140  0.32944  1.0000
  N   N8        1.0  0.47710  0.13615  0.33510  1.0000
  H   H19       1.0  0.06230  0.29434  0.39954  1.0000
  H   H20       1.0  0.06098  0.22086  0.42625  1.0000
  C   C46       1.0  0.23303  0.97173  0.37035  1.0000
  C   C47       1.0  0.27670  0.97253  0.38669  1.0000
  C   C48       1.0  0.30266  0.00432  0.34969  1.0000
  H   H21       1.0  0.21594  0.94797  0.39953  1.0000
  H   H22       1.0  0.28941  0.94929  0.42623  1.0000
  C   C49       1.0  0.34664  0.00359  0.36551  1.0000
  H   H23       1.0  0.35811  0.98056  0.40687  1.0000
  C   C50       1.0  0.49245  0.51783  0.33854  1.0000
  C   C51       1.0  0.41690  0.53818  0.33029  1.0000
  H   H24       1.0  0.40682  0.60347  0.31674  1.0000
  C   C52       1.0  0.06829  0.49694  0.34191  1.0000
  N   N9        1.0  0.37412  0.53318  0.33507  1.0000
  N   N10       1.0  0.14289  0.97042  0.33879  1.0000
  C   C53       1.0  0.97516  0.72722  0.29523  1.0000
  C   C54       1.0  0.97517  0.77132  0.27749  1.0000
  H   H25       1.0  0.95202  0.70881  0.26739  1.0000
  N   N11       1.0  0.94329  0.78610  0.22428  1.0000
  H   H26       1.0  0.92186  0.76727  0.19987  1.0000
  H   H27       1.0  0.94034  0.81550  0.20817  1.0000
  H   H28       1.0  0.98818  0.85572  0.26354  1.0000
  C   C55       1.0  0.28305  0.53513  0.29526  1.0000
  C   C56       1.0  0.23895  0.53512  0.27752  1.0000
  C   C57       1.0  0.21306  0.50258  0.31589  1.0000
  H   H29       1.0  0.30146  0.55828  0.26743  1.0000
  N   N12       1.0  0.22416  0.56701  0.22436  1.0000
  H   H30       1.0  0.24299  0.58845  0.19996  1.0000
  H   H31       1.0  0.19476  0.56997  0.20829  1.0000
  C   C58       1.0  0.16863  0.50067  0.30440  1.0000
  H   H32       1.0  0.15455  0.52209  0.26352  1.0000
  C   C59       1.0  0.42970  0.58057  0.32022  1.0000
  C   C60       1.0  0.47209  0.59337  0.33036  1.0000
  C   C61       1.0  0.50377  0.56151  0.33702  1.0000
  C   C62       1.0  0.43887  0.96313  0.33720  1.0000
  C   C63       1.0  0.08751  0.92275  0.35603  1.0000
  C   C64       1.0  0.10020  0.96521  0.34653  1.0000
  C   C65       1.0  0.46996  0.93210  0.34405  1.0000
  H   H33       1.0  0.11044  0.89985  0.35748  1.0000
  C   C66       1.0  0.07817  0.54031  0.34415  1.0000
  H   H34       1.0  0.45954  0.90212  0.35368  1.0000
  H   H35       1.0  0.40887  0.95258  0.32940  1.0000
  H   H36       1.0  0.10816  0.55074  0.35366  1.0000
  H   H37       1.0  0.05769  0.60140  0.32944  1.0000
  N   N13       1.0  0.47710  0.63615  0.33510  1.0000
  H   H38       1.0  0.06230  0.79434  0.39954  1.0000
  H   H39       1.0  0.06098  0.72086  0.42625  1.0000
  C   C67       1.0  0.23303  0.47173  0.37035  1.0000
  C   C68       1.0  0.27670  0.47253  0.38669  1.0000
  C   C69       1.0  0.30266  0.50432  0.34969  1.0000
  H   H40       1.0  0.21594  0.44798  0.39953  1.0000
  H   H41       1.0  0.28941  0.44929  0.42623  1.0000
  C   C70       1.0  0.34664  0.50359  0.36551  1.0000
  H   H42       1.0  0.35811  0.48057  0.40687  1.0000
  H   H43       1.0  0.90682  0.10347  0.31674  1.0000
  C   C71       1.0  0.56829  0.99694  0.34191  1.0000
  N   N14       1.0  0.64289  0.47042  0.33879  1.0000
  C   C72       1.0  0.47516  0.22722  0.29523  1.0000
  C   C73       1.0  0.47518  0.27132  0.27749  1.0000
  C   C74       1.0  0.50771  0.29721  0.31587  1.0000
  H   H44       1.0  0.45202  0.20881  0.26739  1.0000
  N   N15       1.0  0.44330  0.28610  0.22428  1.0000
  H   H45       1.0  0.42186  0.26727  0.19987  1.0000
  H   H46       1.0  0.44034  0.31550  0.20817  1.0000
  C   C75       1.0  0.50961  0.34164  0.30440  1.0000
  H   H47       1.0  0.48818  0.35573  0.26354  1.0000
  C   C76       1.0  0.71306  0.00257  0.31589  1.0000
  H   H48       1.0  0.80145  0.05828  0.26743  1.0000
  N   N16       1.0  0.72416  0.06701  0.22436  1.0000
  H   H49       1.0  0.74299  0.08845  0.19996  1.0000
  H   H50       1.0  0.69476  0.06997  0.20829  1.0000
  C   C77       1.0  0.66863  0.00067  0.30440  1.0000
  C   C78       1.0  0.94876  0.50650  0.33699  1.0000
  C   C79       1.0  0.92970  0.08057  0.32022  1.0000
  C   C80       1.0  0.97209  0.09338  0.33036  1.0000
  C   C81       1.0  0.00377  0.06151  0.33702  1.0000
  C   C82       1.0  0.93887  0.46313  0.33720  1.0000
  C   C83       1.0  0.54714  0.07140  0.33727  1.0000
  C   C84       1.0  0.52461  0.48566  0.34057  1.0000
  C   C85       1.0  0.51333  0.44198  0.34189  1.0000
  C   C86       1.0  0.54505  0.41007  0.34659  1.0000
  C   C87       1.0  0.58752  0.42275  0.35603  1.0000
  C   C88       1.0  0.60020  0.46521  0.34653  1.0000
  C   C89       1.0  0.96996  0.43210  0.34405  1.0000
  H   H51       1.0  0.61044  0.39986  0.35748  1.0000
  H   H52       1.0  0.95953  0.40212  0.35368  1.0000
  H   H53       1.0  0.90887  0.45258  0.32940  1.0000
  H   H54       1.0  0.55769  0.10140  0.32944  1.0000
  N   N17       1.0  0.97710  0.13615  0.33510  1.0000
  N   N18       1.0  0.53985  0.36739  0.33881  1.0000
  C   C90       1.0  0.53855  0.27725  0.37034  1.0000
  C   C91       1.0  0.53775  0.23357  0.38669  1.0000
  C   C92       1.0  0.50596  0.20761  0.34969  1.0000
  H   H55       1.0  0.56230  0.29434  0.39954  1.0000
  H   H56       1.0  0.56098  0.22086  0.42625  1.0000
  C   C93       1.0  0.50670  0.16363  0.36552  1.0000
  H   H57       1.0  0.52971  0.15216  0.40691  1.0000
  C   C94       1.0  0.73303  0.97173  0.37035  1.0000
  C   C95       1.0  0.77670  0.97253  0.38669  1.0000
  C   C96       1.0  0.80266  0.00432  0.34969  1.0000
  H   H58       1.0  0.71594  0.94797  0.39953  1.0000
  H   H59       1.0  0.78941  0.94929  0.42623  1.0000
  C   C97       1.0  0.84664  0.00359  0.36551  1.0000
  H   H60       1.0  0.85811  0.98056  0.40687  1.0000
  C   C98       1.0  0.99244  0.51783  0.33854  1.0000
  C   C99       1.0  0.91690  0.53818  0.33029  1.0000
  H   H61       1.0  0.90682  0.60347  0.31674  1.0000
  C   C100      1.0  0.56829  0.49694  0.34191  1.0000
  N   N19       1.0  0.87412  0.53318  0.33507  1.0000
  N   N20       1.0  0.64289  0.97042  0.33879  1.0000
  C   C101      1.0  0.47516  0.72722  0.29523  1.0000
  C   C102      1.0  0.47518  0.77132  0.27749  1.0000
  C   C103      1.0  0.50771  0.79721  0.31587  1.0000
  H   H62       1.0  0.45202  0.70881  0.26739  1.0000
  N   N21       1.0  0.44330  0.78610  0.22428  1.0000
  H   H63       1.0  0.42186  0.76727  0.19987  1.0000
  H   H64       1.0  0.44034  0.81550  0.20817  1.0000
  C   C104      1.0  0.50961  0.84164  0.30440  1.0000
  H   H65       1.0  0.48818  0.85572  0.26354  1.0000
  C   C105      1.0  0.78305  0.53513  0.29526  1.0000
  C   C106      1.0  0.73895  0.53512  0.27752  1.0000
  C   C107      1.0  0.71306  0.50258  0.31589  1.0000
  H   H66       1.0  0.80145  0.55828  0.26743  1.0000
  N   N22       1.0  0.72416  0.56701  0.22436  1.0000
  H   H67       1.0  0.74299  0.58845  0.19996  1.0000
  H   H68       1.0  0.69476  0.56997  0.20829  1.0000
  C   C108      1.0  0.66863  0.50067  0.30440  1.0000
  H   H69       1.0  0.65455  0.52209  0.26352  1.0000
  C   C109      1.0  0.92970  0.58057  0.32022  1.0000
  C   C110      1.0  0.97209  0.59337  0.33036  1.0000
  C   C111      1.0  0.00377  0.56151  0.33702  1.0000
  C   C112      1.0  0.93887  0.96313  0.33720  1.0000
  C   C113      1.0  0.54714  0.57140  0.33727  1.0000
  C   C114      1.0  0.52461  0.98566  0.34057  1.0000
  C   C115      1.0  0.51333  0.94198  0.34189  1.0000
  C   C116      1.0  0.54505  0.91007  0.34659  1.0000
  C   C117      1.0  0.58752  0.92275  0.35603  1.0000
  C   C118      1.0  0.60020  0.96521  0.34653  1.0000
  C   C119      1.0  0.96996  0.93210  0.34405  1.0000
  H   H70       1.0  0.61044  0.89985  0.35748  1.0000
  C   C120      1.0  0.57817  0.54031  0.34415  1.0000
  H   H71       1.0  0.95953  0.90212  0.35368  1.0000
  H   H72       1.0  0.90887  0.95258  0.32940  1.0000
  H   H73       1.0  0.60816  0.55074  0.35366  1.0000
  H   H74       1.0  0.55769  0.60140  0.32944  1.0000
  N   N23       1.0  0.97710  0.63615  0.33510  1.0000
  N   N24       1.0  0.53985  0.86739  0.33881  1.0000
  C   C121      1.0  0.53855  0.77725  0.37034  1.0000
  C   C122      1.0  0.53775  0.73357  0.38669  1.0000
  C   C123      1.0  0.50596  0.70761  0.34969  1.0000
  H   H75       1.0  0.56230  0.79434  0.39954  1.0000
  H   H76       1.0  0.56098  0.72086  0.42625  1.0000
  C   C124      1.0  0.50670  0.66363  0.36552  1.0000
  H   H77       1.0  0.52971  0.65216  0.40691  1.0000
  C   C125      1.0  0.73303  0.47173  0.37035  1.0000
  C   C126      1.0  0.77670  0.47253  0.38669  1.0000
  C   C127      1.0  0.80266  0.50432  0.34969  1.0000
  H   H78       1.0  0.71594  0.44798  0.39953  1.0000
  H   H79       1.0  0.78941  0.44929  0.42623  1.0000
  C   C128      1.0  0.84664  0.50359  0.36551  1.0000
  H   H80       1.0  0.85811  0.48057  0.40687  1.0000
