data_image0
_chemical_formula_structural       C3NC3NC5NC5NC20H18N4C3NC3NC5NC5NC20H18N4C3NC3NC5NC5NC20H18N5C2H2CHNC2H2CHNC2H2CHNC2H2CHNC2H2CHNC2H2CHC8H8C8H8C8H8CNC2O2CH2CHCNC2O2CH2CHCNC2O2CH2CHCNC2O2CH2CHCNC2O2CH2CHCNC2O2CH2CH
_chemical_formula_sum              "C180 N36 H114 O12"
_cell_length_a       50.3756
_cell_length_b       50.3757
_cell_length_c       14.8038
_cell_angle_alpha    90.0974
_cell_angle_beta     89.9026
_cell_angle_gamma    120

_space_group_name_H-M_alt    "P 1"
_space_group_IT_number       1

loop_
  _space_group_symop_operation_xyz
  'x, y, z'

loop_
  _atom_site_type_symbol
  _atom_site_label
  _atom_site_symmetry_multiplicity
  _atom_site_fract_x
  _atom_site_fract_y
  _atom_site_fract_z
  _atom_site_occupancy
  C   C1        1.0  0.05381  0.65501  0.32711  1.0000
  C   C2        1.0  0.02212  0.63919  0.32929  1.0000
  C   C3        1.0  0.01203  0.60783  0.33128  1.0000
  N   N1        1.0  0.03795  0.60588  0.33079  1.0000
  C   C4        1.0  0.06388  0.63371  0.32836  1.0000
  C   C5        1.0  0.09511  0.64110  0.32741  1.0000
  C   C6        1.0  0.10502  0.61915  0.32962  1.0000
  N   N2        1.0  0.08770  0.58821  0.33044  1.0000
  C   C7        1.0  0.10502  0.57459  0.33279  1.0000
  C   C8        1.0  0.13546  0.59841  0.33354  1.0000
  C   C9        1.0  0.13546  0.62577  0.33169  1.0000
  C   C10       1.0  0.09511  0.54274  0.33350  1.0000
  C   C11       1.0  0.06387  0.51893  0.33130  1.0000
  N   N3        1.0  0.03796  0.52088  0.33074  1.0000
  C   C12       1.0  0.01203  0.49304  0.32835  1.0000
  C   C13       1.0  0.02210  0.47174  0.32708  1.0000
  C   C14       1.0  0.05379  0.48757  0.32933  1.0000
  C   C15       1.0  0.98079  0.48565  0.32745  1.0000
  C   C16       1.0  0.97089  0.50760  0.32967  1.0000
  N   N4        1.0  0.98821  0.53855  0.33041  1.0000
  C   C17       1.0  0.97089  0.55216  0.33283  1.0000
  C   C18       1.0  0.94045  0.52834  0.33369  1.0000
  C   C19       1.0  0.94045  0.50098  0.33187  1.0000
  C   C20       1.0  0.98079  0.58402  0.33343  1.0000
  C   C21       1.0  0.95739  0.59220  0.33470  1.0000
  C   C22       1.0  0.90430  0.59895  0.33527  1.0000
  C   C23       1.0  0.91906  0.59934  0.25331  1.0000
  C   C24       1.0  0.94511  0.59583  0.25298  1.0000
  C   C25       1.0  0.95740  0.45408  0.32505  1.0000
  C   C26       1.0  0.90430  0.39433  0.32418  1.0000
  C   C27       1.0  0.91564  0.41115  0.24333  1.0000
  C   C28       1.0  0.94189  0.44057  0.24351  1.0000
  C   C29       1.0  0.11850  0.53454  0.33482  1.0000
  C   C30       1.0  0.13066  0.53059  0.25311  1.0000
  C   C31       1.0  0.15665  0.52698  0.25341  1.0000
  C   C32       1.0  0.17141  0.52750  0.33533  1.0000
  C   C33       1.0  0.11852  0.67267  0.32499  1.0000
  C   C34       1.0  0.13402  0.68615  0.24341  1.0000
  C   C35       1.0  0.17179  0.73229  0.32423  1.0000
  C   C36       1.0  0.16034  0.71553  0.24327  1.0000
  H   H1        1.0  0.17168  0.72425  0.18357  1.0000
  H   H2        1.0  0.12706  0.67409  0.18412  1.0000
  H   H3        1.0  0.06710  0.67836  0.32525  1.0000
  H   H4        1.0  0.00884  0.64928  0.32903  1.0000
  H   H5        1.0  0.03795  0.58681  0.33256  1.0000
  H   H6        1.0  0.03795  0.53995  0.33262  1.0000
  H   H7        1.0  0.15481  0.64689  0.33221  1.0000
  H   H8        1.0  0.15481  0.59664  0.33498  1.0000
  H   H9        1.0  0.12131  0.53140  0.19253  1.0000
  H   H10       1.0  0.16506  0.52471  0.19284  1.0000
  H   H11       1.0  0.06706  0.47748  0.32917  1.0000
  H   H12       1.0  0.00882  0.44839  0.32535  1.0000
  H   H13       1.0  0.92110  0.53011  0.33522  1.0000
  H   H14       1.0  0.92110  0.47986  0.33250  1.0000
  H   H15       1.0  0.94881  0.45263  0.18428  1.0000
  H   H16       1.0  0.90433  0.40239  0.18365  1.0000
  H   H17       1.0  0.95446  0.59491  0.19238  1.0000
  H   H18       1.0  0.91056  0.60137  0.19272  1.0000
  N   N5        1.0  0.87796  0.36769  0.31963  1.0000
  N   N6        1.0  0.19700  0.52575  0.34110  1.0000
  N   N7        1.0  0.19820  0.75886  0.31967  1.0000
  N   N8        1.0  0.87862  0.60054  0.34107  1.0000
  C   C37       1.0  0.44580  0.48654  0.32643  1.0000
  C   C38       1.0  0.46163  0.47069  0.32858  1.0000
  C   C39       1.0  0.49299  0.49197  0.33052  1.0000
  N   N9        1.0  0.49493  0.51983  0.33006  1.0000
  C   C40       1.0  0.46709  0.51791  0.32768  1.0000
  C   C41       1.0  0.45969  0.54175  0.32679  1.0000
  C   C42       1.0  0.48163  0.57361  0.32896  1.0000
  N   N10       1.0  0.51257  0.58724  0.32968  1.0000
  C   C43       1.0  0.52618  0.61818  0.33200  1.0000
  C   C44       1.0  0.50235  0.62479  0.33283  1.0000
  C   C45       1.0  0.47500  0.59743  0.33110  1.0000
  C   C46       1.0  0.55803  0.64014  0.33258  1.0000
  C   C47       1.0  0.58185  0.63271  0.33044  1.0000
  N   N11       1.0  0.57991  0.60485  0.32994  1.0000
  C   C48       1.0  0.60775  0.60677  0.32752  1.0000
  C   C49       1.0  0.62904  0.63814  0.32626  1.0000
  C   C50       1.0  0.61321  0.65400  0.32848  1.0000
  C   C51       1.0  0.61516  0.58293  0.32658  1.0000
  C   C52       1.0  0.59321  0.55108  0.32877  1.0000
  N   N12       1.0  0.56227  0.53745  0.32954  1.0000
  C   C53       1.0  0.54866  0.50651  0.33192  1.0000
  C   C54       1.0  0.57249  0.49990  0.33275  1.0000
  C   C55       1.0  0.59985  0.52727  0.33093  1.0000
  C   C56       1.0  0.51681  0.48455  0.33262  1.0000
  C   C57       1.0  0.50864  0.45297  0.33387  1.0000
  C   C58       1.0  0.50188  0.39314  0.33437  1.0000
  C   C59       1.0  0.50146  0.40742  0.25243  1.0000
  C   C60       1.0  0.50495  0.43697  0.25212  1.0000
  C   C61       1.0  0.64673  0.59112  0.32425  1.0000
  C   C62       1.0  0.70649  0.59777  0.32370  1.0000
  C   C63       1.0  0.68972  0.59226  0.24276  1.0000
  C   C64       1.0  0.66030  0.58907  0.24279  1.0000
  C   C65       1.0  0.56622  0.67172  0.33384  1.0000
  C   C66       1.0  0.57006  0.68769  0.25210  1.0000
  C   C67       1.0  0.57367  0.71729  0.25238  1.0000
  C   C68       1.0  0.57326  0.73167  0.33432  1.0000
  C   C69       1.0  0.42812  0.53358  0.32444  1.0000
  C   C70       1.0  0.41461  0.53552  0.24291  1.0000
  C   C71       1.0  0.36848  0.52718  0.32385  1.0000
  C   C72       1.0  0.38526  0.53250  0.24289  1.0000
  H   H19       1.0  0.37652  0.53507  0.18324  1.0000
  H   H20       1.0  0.42668  0.54065  0.18363  1.0000
  H   H21       1.0  0.42244  0.47646  0.32460  1.0000
  H   H22       1.0  0.45155  0.44732  0.32827  1.0000
  H   H23       1.0  0.51400  0.53891  0.33183  1.0000
  H   H24       1.0  0.56084  0.58577  0.33170  1.0000
  H   H25       1.0  0.45388  0.59565  0.33163  1.0000
  H   H26       1.0  0.50412  0.64591  0.33425  1.0000
  H   H27       1.0  0.56915  0.67743  0.19152  1.0000
  H   H28       1.0  0.57584  0.72788  0.19179  1.0000
  H   H29       1.0  0.62329  0.67736  0.32819  1.0000
  H   H30       1.0  0.65240  0.64822  0.32443  1.0000
  H   H31       1.0  0.57073  0.47879  0.33429  1.0000
  H   H32       1.0  0.62097  0.52904  0.33155  1.0000
  H   H33       1.0  0.64827  0.58388  0.18350  1.0000
  H   H34       1.0  0.69853  0.58968  0.18312  1.0000
  H   H35       1.0  0.50585  0.44718  0.19154  1.0000
  H   H36       1.0  0.49937  0.39681  0.19184  1.0000
  N   N13       1.0  0.73315  0.59812  0.31928  1.0000
  N   N14       1.0  0.57499  0.75900  0.34009  1.0000
  N   N15       1.0  0.34193  0.52706  0.31944  1.0000
  N   N16       1.0  0.50029  0.36587  0.34015  1.0000
  C   C73       1.0  0.61423  0.04700  0.32596  1.0000
  C   C74       1.0  0.63011  0.07869  0.32823  1.0000
  C   C75       1.0  0.60883  0.08878  0.33019  1.0000
  N   N17       1.0  0.58096  0.06286  0.32965  1.0000
  C   C76       1.0  0.58287  0.03693  0.32720  1.0000
  C   C77       1.0  0.55902  0.00570  0.32622  1.0000
  C   C78       1.0  0.52716  0.99580  0.32845  1.0000
  N   N18       1.0  0.51354  0.01312  0.32930  1.0000
  C   C79       1.0  0.48261  0.99581  0.33170  1.0000
  C   C80       1.0  0.47598  0.96536  0.33241  1.0000
  C   C81       1.0  0.50334  0.96536  0.33056  1.0000
  C   C82       1.0  0.46066  0.00571  0.33241  1.0000
  C   C83       1.0  0.46809  0.03695  0.33023  1.0000
  N   N19       1.0  0.49596  0.06287  0.32966  1.0000
  C   C84       1.0  0.49405  0.08880  0.32723  1.0000
  C   C85       1.0  0.46269  0.07873  0.32601  1.0000
  C   C86       1.0  0.44682  0.04704  0.32829  1.0000
  C   C87       1.0  0.51790  0.12003  0.32625  1.0000
  C   C88       1.0  0.54976  0.12993  0.32846  1.0000
  N   N20       1.0  0.56338  0.11261  0.32925  1.0000
  C   C89       1.0  0.59431  0.12993  0.33163  1.0000
  C   C90       1.0  0.60093  0.16037  0.33244  1.0000
  C   C91       1.0  0.57358  0.16037  0.33062  1.0000
  C   C92       1.0  0.61626  0.12002  0.33233  1.0000
  C   C93       1.0  0.64784  0.14342  0.33366  1.0000
  C   C94       1.0  0.70769  0.19649  0.33450  1.0000
  C   C95       1.0  0.69343  0.18177  0.25247  1.0000
  C   C96       1.0  0.66388  0.15570  0.25201  1.0000
  C   C97       1.0  0.50974  0.14343  0.32384  1.0000
  C   C98       1.0  0.50307  0.19651  0.32312  1.0000
  C   C99       1.0  0.50863  0.18519  0.24223  1.0000
  C   C100      1.0  0.51179  0.15893  0.24232  1.0000
  C   C101      1.0  0.42907  0.98233  0.33379  1.0000
  C   C102      1.0  0.41302  0.97011  0.25216  1.0000
  C   C103      1.0  0.38341  0.94414  0.25260  1.0000
  C   C104      1.0  0.36912  0.92941  0.33459  1.0000
  C   C105      1.0  0.56717  0.98228  0.32381  1.0000
  C   C106      1.0  0.56519  0.96675  0.24226  1.0000
  C   C107      1.0  0.57355  0.92903  0.32308  1.0000
  C   C108      1.0  0.56823  0.94042  0.24215  1.0000
  H   H37       1.0  0.56567  0.92908  0.18247  1.0000
  H   H38       1.0  0.56012  0.97368  0.18299  1.0000
  H   H39       1.0  0.62431  0.03371  0.32408  1.0000
  H   H40       1.0  0.65347  0.09197  0.32790  1.0000
  H   H41       1.0  0.56189  0.06286  0.33144  1.0000
  H   H42       1.0  0.51504  0.06287  0.33139  1.0000
  H   H43       1.0  0.50510  0.94600  0.33104  1.0000
  H   H44       1.0  0.45486  0.94602  0.33387  1.0000
  H   H45       1.0  0.42320  0.97946  0.19154  1.0000
  H   H46       1.0  0.37276  0.93569  0.19207  1.0000
  H   H47       1.0  0.42345  0.03377  0.32807  1.0000
  H   H48       1.0  0.45262  0.09201  0.32420  1.0000
  H   H49       1.0  0.62206  0.17972  0.33396  1.0000
  H   H50       1.0  0.57181  0.17973  0.33119  1.0000
  H   H51       1.0  0.51704  0.15206  0.18309  1.0000
  H   H52       1.0  0.51127  0.19654  0.18260  1.0000
  H   H53       1.0  0.65370  0.14637  0.19138  1.0000
  H   H54       1.0  0.70407  0.19026  0.19193  1.0000
  N   N21       1.0  0.50278  0.22286  0.31865  1.0000
  N   N22       1.0  0.34179  0.90381  0.34049  1.0000
  N   N23       1.0  0.57367  0.90259  0.31861  1.0000
  N   N24       1.0  0.73493  0.22219  0.34043  1.0000
  N   N25       1.0  0.28694  0.52269  0.26728  1.0000
  C   C109      1.0  0.26237  0.52485  0.24022  1.0000
  C   C110      1.0  0.24190  0.52473  0.30568  1.0000
  H   H55       1.0  0.25902  0.52627  0.17271  1.0000
  H   H56       1.0  0.30396  0.52867  0.01052  1.0000
  C   C111      1.0  0.21630  0.52676  0.28206  1.0000
  H   H57       1.0  0.21313  0.52952  0.21732  1.0000
  N   N26       1.0  0.57788  0.85185  0.26639  1.0000
  C   C112      1.0  0.57568  0.82509  0.23932  1.0000
  C   C113      1.0  0.57594  0.80486  0.30472  1.0000
  H   H58       1.0  0.57412  0.82018  0.17182  1.0000
  H   H59       1.0  0.57267  0.86322  0.00977  1.0000
  C   C114      1.0  0.57388  0.77719  0.28109  1.0000
  H   H60       1.0  0.57106  0.77117  0.21638  1.0000
  N   N27       1.0  0.24879  0.81386  0.26733  1.0000
  C   C115      1.0  0.27550  0.83845  0.24006  1.0000
  C   C116      1.0  0.29587  0.85890  0.30537  1.0000
  H   H61       1.0  0.28026  0.84180  0.17250  1.0000
  H   H62       1.0  0.23820  0.79741  0.01141  1.0000
  C   C117      1.0  0.32349  0.88451  0.28156  1.0000
  H   H63       1.0  0.32940  0.88770  0.21675  1.0000
  N   N28       1.0  0.78817  0.60248  0.26724  1.0000
  C   C118      1.0  0.81282  0.60041  0.24025  1.0000
  C   C119      1.0  0.83347  0.60102  0.30568  1.0000
  H   H64       1.0  0.81607  0.59865  0.17281  1.0000
  H   H65       1.0  0.77190  0.59714  0.01046  1.0000
  C   C120      1.0  0.85915  0.59907  0.28211  1.0000
  H   H66       1.0  0.86223  0.59599  0.21749  1.0000
  N   N29       1.0  0.49804  0.27326  0.26636  1.0000
  C   C121      1.0  0.50005  0.29992  0.23931  1.0000
  C   C122      1.0  0.49969  0.32015  0.30476  1.0000
  H   H67       1.0  0.50154  0.30474  0.17181  1.0000
  H   H68       1.0  0.50371  0.26206  0.00962  1.0000
  C   C123      1.0  0.50157  0.34772  0.28114  1.0000
  H   H69       1.0  0.50444  0.35372  0.21644  1.0000
  N   N30       1.0  0.82755  0.31255  0.26715  1.0000
  C   C124      1.0  0.80090  0.28788  0.23997  1.0000
  C   C125      1.0  0.78066  0.26730  0.30529  1.0000
  H   H70       1.0  0.79609  0.28455  0.17245  1.0000
  H   H71       1.0  0.83868  0.32902  0.01057  1.0000
  C   C126      1.0  0.75311  0.24160  0.28154  1.0000
  H   H72       1.0  0.74716  0.23843  0.21681  1.0000
  C   C127      1.0  0.94318  0.59254  0.41678  1.0000
  C   C128      1.0  0.91711  0.59602  0.41687  1.0000
  C   C129      1.0  0.94627  0.43726  0.40605  1.0000
  C   C130      1.0  0.92011  0.40778  0.40559  1.0000
  C   C131      1.0  0.15873  0.53076  0.41691  1.0000
  C   C132      1.0  0.13274  0.53438  0.41685  1.0000
  C   C133      1.0  0.12970  0.68947  0.40608  1.0000
  C   C134      1.0  0.15593  0.71890  0.40565  1.0000
  H   H73       1.0  0.16412  0.72980  0.46606  1.0000
  H   H74       1.0  0.11964  0.67981  0.46656  1.0000
  H   H75       1.0  0.12492  0.53800  0.47690  1.0000
  H   H76       1.0  0.16897  0.53150  0.47730  1.0000
  H   H77       1.0  0.95636  0.44692  0.46651  1.0000
  H   H78       1.0  0.91200  0.39682  0.46593  1.0000
  H   H79       1.0  0.90685  0.59534  0.47729  1.0000
  H   H80       1.0  0.95104  0.58909  0.47685  1.0000
  C   C135      1.0  0.50832  0.43852  0.41593  1.0000
  C   C136      1.0  0.50487  0.40897  0.41598  1.0000
  C   C137      1.0  0.66351  0.59689  0.40534  1.0000
  C   C138      1.0  0.69300  0.60022  0.40503  1.0000
  C   C139      1.0  0.57011  0.71586  0.41593  1.0000
  C   C140      1.0  0.56650  0.68625  0.41588  1.0000
  C   C141      1.0  0.41133  0.52801  0.40556  1.0000
  C   C142      1.0  0.38189  0.52478  0.40522  1.0000
  H   H81       1.0  0.37099  0.52211  0.46564  1.0000
  H   H82       1.0  0.42099  0.52764  0.46601  1.0000
  H   H83       1.0  0.56294  0.67490  0.47597  1.0000
  H   H84       1.0  0.56943  0.72544  0.47632  1.0000
  H   H85       1.0  0.65380  0.59731  0.46577  1.0000
  H   H86       1.0  0.70390  0.60307  0.46545  1.0000
  H   H87       1.0  0.50554  0.39945  0.47639  1.0000
  H   H88       1.0  0.51182  0.44990  0.47600  1.0000
  C   C143      1.0  0.66226  0.15761  0.41581  1.0000
  C   C144      1.0  0.69182  0.18368  0.41603  1.0000
  C   C145      1.0  0.50396  0.15453  0.40489  1.0000
  C   C146      1.0  0.50058  0.18066  0.40448  1.0000
  C   C147      1.0  0.38501  0.94213  0.41610  1.0000
  C   C148      1.0  0.41463  0.96811  0.41589  1.0000
  C   C149      1.0  0.57276  0.97114  0.40489  1.0000
  C   C150      1.0  0.57592  0.94488  0.40450  1.0000
  H   H89       1.0  0.57864  0.93673  0.46489  1.0000
  H   H90       1.0  0.57312  0.98122  0.46536  1.0000
  H   H91       1.0  0.42603  0.97595  0.47590  1.0000
  H   H92       1.0  0.37550  0.93189  0.47653  1.0000
  H   H93       1.0  0.50346  0.14443  0.46532  1.0000
  H   H94       1.0  0.49772  0.18879  0.46485  1.0000
  H   H95       1.0  0.70131  0.19392  0.47649  1.0000
  H   H96       1.0  0.65085  0.14974  0.47584  1.0000
  C   C151      1.0  0.29364  0.52062  0.35517  1.0000
  N   N31       1.0  0.24870  0.52282  0.39349  1.0000
  C   C152      1.0  0.27332  0.52069  0.42207  1.0000
  C   C153      1.0  0.27778  0.51964  0.51402  1.0000
  O   O1        1.0  0.25505  0.50830  0.56268  1.0000
  O   O2        1.0  0.30197  0.54484  0.54779  1.0000
  C   C154      1.0  0.31824  0.53896  0.61759  1.0000
  H   H97       1.0  0.33790  0.56080  0.63755  1.0000
  H   H98       1.0  0.32675  0.52404  0.59384  1.0000
  C   C155      1.0  0.31905  0.51758  0.37406  1.0000
  H   H99       1.0  0.31941  0.50769  0.43151  1.0000
  C   C156      1.0  0.58013  0.86080  0.35426  1.0000
  N   N32       1.0  0.57802  0.81372  0.39252  1.0000
  C   C157      1.0  0.58019  0.84052  0.42112  1.0000
  C   C158      1.0  0.58145  0.84620  0.51304  1.0000
  O   O3        1.0  0.59303  0.83503  0.56138  1.0000
  O   O4        1.0  0.55624  0.84506  0.54738  1.0000
  C   C159      1.0  0.56214  0.86731  0.61710  1.0000
  H   H100      1.0  0.54028  0.86500  0.63759  1.0000
  H   H101      1.0  0.57686  0.89072  0.59305  1.0000
  C   C160      1.0  0.58317  0.88925  0.37317  1.0000
  H   H102      1.0  0.59309  0.89957  0.43059  1.0000
  C   C161      1.0  0.24004  0.80715  0.35529  1.0000
  N   N33       1.0  0.28720  0.85210  0.39326  1.0000
  C   C162      1.0  0.26045  0.82747  0.42206  1.0000
  C   C163      1.0  0.25494  0.82291  0.51411  1.0000
  O   O5        1.0  0.26603  0.84590  0.56178  1.0000
  O   O6        1.0  0.25568  0.79871  0.54840  1.0000
  C   C164      1.0  0.23359  0.78287  0.61887  1.0000
  H   H103      1.0  0.23553  0.76312  0.63927  1.0000
  H   H104      1.0  0.21016  0.77454  0.59562  1.0000
  C   C165      1.0  0.21164  0.78170  0.37441  1.0000
  H   H105      1.0  0.20143  0.78127  0.43217  1.0000
  C   C166      1.0  0.78156  0.60496  0.35504  1.0000
  N   N34       1.0  0.82678  0.60332  0.39343  1.0000
  C   C167      1.0  0.80209  0.60541  0.42190  1.0000
  C   C168      1.0  0.79769  0.60688  0.51387  1.0000
  O   O7        1.0  0.82074  0.61967  0.56084  1.0000
  O   O8        1.0  0.77431  0.58119  0.54809  1.0000
  C   C169      1.0  0.75744  0.58628  0.61800  1.0000
  H   H106      1.0  0.73854  0.56407  0.63880  1.0000
  H   H107      1.0  0.74779  0.60016  0.59397  1.0000
  C   C170      1.0  0.75600  0.60775  0.37395  1.0000
  H   H108      1.0  0.75548  0.61758  0.43149  1.0000
  C   C171      1.0  0.49589  0.26444  0.35423  1.0000
  N   N35       1.0  0.49771  0.31140  0.39256  1.0000
  C   C172      1.0  0.49573  0.28471  0.42114  1.0000
  C   C173      1.0  0.49458  0.27915  0.51307  1.0000
  O   O9        1.0  0.48310  0.29043  0.56170  1.0000
  O   O10       1.0  0.51978  0.28023  0.54698  1.0000
  C   C174      1.0  0.51389  0.25804  0.61672  1.0000
  H   H109      1.0  0.53573  0.26029  0.63678  1.0000
  H   H110      1.0  0.49905  0.23462  0.59287  1.0000
  C   C175      1.0  0.49302  0.23607  0.37309  1.0000
  H   H111      1.0  0.48300  0.22570  0.43037  1.0000
  C   C176      1.0  0.83636  0.31926  0.35505  1.0000
  N   N36       1.0  0.78939  0.27409  0.39314  1.0000
  C   C177      1.0  0.81607  0.29883  0.42184  1.0000
  C   C178      1.0  0.82163  0.30326  0.51380  1.0000
  O   O11       1.0  0.81039  0.28050  0.56222  1.0000
  O   O12       1.0  0.82045  0.32733  0.54796  1.0000
  C   C179      1.0  0.84260  0.34366  0.61781  1.0000
  H   H112      1.0  0.84028  0.36322  0.63809  1.0000
  H   H113      1.0  0.86605  0.35233  0.59397  1.0000
  C   C180      1.0  0.86471  0.34477  0.37405  1.0000
  H   H114      1.0  0.87504  0.34518  0.43142  1.0000
