data_image0
_chemical_formula_structural       CNCNHCN2CN2C2NC3H2C3H3C3NCH3C3NCH3CHCNHNCNHCNHCNHCNCNCNCNCNCNCNCNCNCNCNCNCNCNCNCHCNHCNHC3H3C3NCH3CNHC3NCH3C3NCH3C3NCH3
_chemical_formula_sum              "C63 N36 H36"
_cell_length_a       29.9557
_cell_length_b       29.9557
_cell_length_c       14.7349
_cell_angle_alpha    90
_cell_angle_beta     90
_cell_angle_gamma    120

_space_group_name_H-M_alt    "P 1"
_space_group_IT_number       1

loop_
  _space_group_symop_operation_xyz
  'x, y, z'

loop_
  _atom_site_type_symbol
  _atom_site_label
  _atom_site_symmetry_multiplicity
  _atom_site_fract_x
  _atom_site_fract_y
  _atom_site_fract_z
  _atom_site_occupancy
  C   C1        1.0  0.06953  0.53755  0.28827  1.0000
  N   N1        1.0  0.04283  0.56309  0.28198  1.0000
  C   C2        1.0  0.12401  0.56450  0.30275  1.0000
  N   N2        1.0  0.04075  0.48543  0.29530  1.0000
  H   H1        1.0  0.21647  0.72537  0.25498  1.0000
  C   C3        1.0  0.19794  0.64157  0.35642  1.0000
  N   N3        1.0  0.14947  0.61663  0.32032  1.0000
  N   N4        1.0  0.15017  0.53800  0.31463  1.0000
  C   C4        1.0  0.19884  0.56133  0.34985  1.0000
  N   N5        1.0  0.21954  0.61188  0.36960  1.0000
  N   N6        1.0  0.24448  0.51518  0.30288  1.0000
  C   C5        1.0  0.24116  0.73366  0.30846  1.0000
  C   C6        1.0  0.23402  0.54339  0.36304  1.0000
  N   N7        1.0  0.26853  0.56643  0.43119  1.0000
  C   C7        1.0  0.27033  0.71005  0.44223  1.0000
  C   C8        1.0  0.23215  0.69485  0.37325  1.0000
  C   C9        1.0  0.26618  0.68035  0.52542  1.0000
  H   H2        1.0  0.22711  0.64852  0.53643  1.0000
  H   H3        1.0  0.27672  0.70559  0.58456  1.0000
  C   C10       1.0  0.99026  0.54004  0.28102  1.0000
  C   C11       1.0  0.95926  0.48519  0.28972  1.0000
  C   C12       1.0  0.97003  0.57605  0.27427  1.0000
  H   H4        1.0  0.94324  0.56513  0.21739  1.0000
  H   H5        1.0  0.00084  0.61570  0.26296  1.0000
  H   H6        1.0  0.95047  0.57547  0.33704  1.0000
  C   C13       1.0  0.48236  0.45470  0.28110  1.0000
  C   C14       1.0  0.53721  0.47854  0.28983  1.0000
  C   C15       1.0  0.48488  0.53650  0.28805  1.0000
  N   N8        1.0  0.45934  0.48425  0.28195  1.0000
  C   C16       1.0  0.44635  0.39846  0.27463  1.0000
  H   H7        1.0  0.45723  0.38248  0.21786  1.0000
  H   H8        1.0  0.40669  0.38960  0.26332  1.0000
  H   H9        1.0  0.44695  0.37957  0.33752  1.0000
  C   C17       1.0  0.56764  0.03211  0.28076  1.0000
  C   C18       1.0  0.54383  0.06314  0.28967  1.0000
  C   C19       1.0  0.48586  0.95287  0.28819  1.0000
  N   N9        1.0  0.53809  0.97954  0.28167  1.0000
  C   C20       1.0  0.62386  0.05231  0.27377  1.0000
  H   H10       1.0  0.63969  0.07918  0.21699  1.0000
  H   H11       1.0  0.63266  0.02149  0.26216  1.0000
  H   H12       1.0  0.64291  0.07177  0.33657  1.0000
  C   C21       1.0  0.28878  0.51226  0.30782  1.0000
  H   H13       1.0  0.29704  0.49566  0.25461  1.0000
  C   C22       1.0  0.51012  0.78106  0.30740  1.0000
  N   N10       1.0  0.50731  0.73389  0.30250  1.0000
  H   H14       1.0  0.52665  0.80583  0.25404  1.0000
  N   N11       1.0  0.28845  0.77787  0.30322  1.0000
  C   C23       1.0  0.73595  0.50552  0.30797  1.0000
  N   N12       1.0  0.78033  0.50279  0.30197  1.0000
  H   H15       1.0  0.72739  0.52200  0.25496  1.0000
  C   C24       1.0  0.51680  0.23482  0.30888  1.0000
  N   N13       1.0  0.51965  0.28200  0.30292  1.0000
  H   H16       1.0  0.50042  0.20987  0.25574  1.0000
  C   C25       1.0  0.78743  0.28633  0.30783  1.0000
  N   N14       1.0  0.74032  0.24192  0.30226  1.0000
  H   H17       1.0  0.81237  0.29496  0.25464  1.0000
  C   C26       1.0  0.38093  0.56110  0.35571  1.0000
  N   N15       1.0  0.40582  0.53747  0.31986  1.0000
  C   C27       1.0  0.45798  0.56408  0.30250  1.0000
  N   N16       1.0  0.48458  0.61674  0.31442  1.0000
  C   C28       1.0  0.46126  0.64214  0.34941  1.0000
  N   N17       1.0  0.41068  0.61238  0.36901  1.0000
  C   C29       1.0  0.46133  0.82429  0.35545  1.0000
  N   N18       1.0  0.48492  0.87285  0.31976  1.0000
  C   C30       1.0  0.45826  0.89836  0.30254  1.0000
  N   N19       1.0  0.40562  0.87228  0.31462  1.0000
  C   C31       1.0  0.38029  0.82358  0.34975  1.0000
  N   N20       1.0  0.41008  0.80277  0.36908  1.0000
  C   C32       1.0  0.82965  0.37823  0.35606  1.0000
  N   N21       1.0  0.87851  0.40433  0.32166  1.0000
  C   C33       1.0  0.90373  0.45657  0.30386  1.0000
  N   N22       1.0  0.87555  0.48113  0.31419  1.0000
  C   C34       1.0  0.82667  0.45717  0.34814  1.0000
  N   N23       1.0  0.80687  0.40687  0.36831  1.0000
  C   C35       1.0  0.64414  0.45606  0.35713  1.0000
  N   N24       1.0  0.61804  0.47868  0.32216  1.0000
  C   C36       1.0  0.56581  0.45163  0.30423  1.0000
  N   N25       1.0  0.54129  0.39890  0.31469  1.0000
  C   C37       1.0  0.56522  0.37406  0.34916  1.0000
  N   N26       1.0  0.61550  0.40464  0.36935  1.0000
  C   C38       1.0  0.56655  0.19260  0.35736  1.0000
  N   N27       1.0  0.54382  0.14390  0.32226  1.0000
  C   C39       1.0  0.57078  0.11864  0.30430  1.0000
  N   N28       1.0  0.62352  0.14674  0.31470  1.0000
  C   C40       1.0  0.64846  0.19549  0.34920  1.0000
  N   N29       1.0  0.61797  0.21528  0.36951  1.0000
  C   C41       1.0  0.98825  0.45943  0.29466  1.0000
  H   H18       1.0  0.97033  0.42033  0.30254  1.0000
  C   C42       1.0  0.56299  0.53329  0.29467  1.0000
  N   N30       1.0  0.53700  0.55980  0.29517  1.0000
  H   H19       1.0  0.60209  0.55447  0.30259  1.0000
  C   C43       1.0  0.48909  0.03418  0.29492  1.0000
  N   N31       1.0  0.46257  0.98168  0.29555  1.0000
  H   H20       1.0  0.46794  0.05210  0.30324  1.0000
  C   C44       1.0  0.31255  0.56506  0.44166  1.0000
  C   C45       1.0  0.32763  0.54206  0.37249  1.0000
  C   C46       1.0  0.34230  0.59055  0.52483  1.0000
  H   H21       1.0  0.37412  0.58328  0.53574  1.0000
  H   H22       1.0  0.31709  0.57584  0.58400  1.0000
  H   H23       1.0  0.35762  0.63202  0.52033  1.0000
  C   C47       1.0  0.45769  0.75213  0.44165  1.0000
  C   C48       1.0  0.48047  0.79014  0.37236  1.0000
  C   C49       1.0  0.47938  0.69527  0.36291  1.0000
  N   N32       1.0  0.45638  0.70677  0.43112  1.0000
  C   C50       1.0  0.43217  0.75633  0.52482  1.0000
  H   H24       1.0  0.43939  0.79540  0.53573  1.0000
  H   H25       1.0  0.44690  0.74586  0.58399  1.0000
  H   H26       1.0  0.39071  0.73014  0.52031  1.0000
  C   C51       1.0  0.32720  0.78845  0.36326  1.0000
  N   N33       1.0  0.31574  0.75402  0.43154  1.0000
  H   H27       1.0  0.29235  0.66506  0.52084  1.0000
  C   C52       1.0  0.71329  0.45316  0.44212  1.0000
  C   C53       1.0  0.69761  0.47600  0.37360  1.0000
  C   C54       1.0  0.79121  0.47471  0.36166  1.0000
  N   N34       1.0  0.75720  0.45172  0.43045  1.0000
  C   C55       1.0  0.68398  0.42749  0.52555  1.0000
  H   H28       1.0  0.65190  0.43431  0.53691  1.0000
  H   H29       1.0  0.70939  0.44246  0.58444  1.0000
  H   H30       1.0  0.66907  0.38609  0.52105  1.0000
  C   C56       1.0  0.56972  0.26476  0.44253  1.0000
  C   C57       1.0  0.54686  0.22635  0.37388  1.0000
  C   C58       1.0  0.54805  0.32110  0.36224  1.0000
  N   N35       1.0  0.57108  0.31008  0.43095  1.0000
  C   C59       1.0  0.59554  0.26114  0.52577  1.0000
  H   H31       1.0  0.58870  0.22223  0.53709  1.0000
  H   H32       1.0  0.58070  0.27162  0.58478  1.0000
  H   H33       1.0  0.63694  0.28761  0.52101  1.0000
  C   C60       1.0  0.75793  0.30924  0.44200  1.0000
  C   C61       1.0  0.79630  0.32482  0.37323  1.0000
  C   C62       1.0  0.70147  0.23109  0.36219  1.0000
  N   N36       1.0  0.71261  0.26524  0.43081  1.0000
  C   C63       1.0  0.76177  0.33877  0.52524  1.0000
  H   H34       1.0  0.80070  0.37090  0.53619  1.0000
  H   H35       1.0  0.75151  0.31353  0.58432  1.0000
  H   H36       1.0  0.73525  0.35364  0.52077  1.0000
