data_image0
_chemical_formula_structural       CNHCNHCNHCNHC2NCHC2NCHCNHCNHC2NCHC2NCHCNHCNHCNHCNHC2NCHC2NCHC2NCHC2NCHC6H3C6H3C6H3C6H3C6H3C6H3C6H3C6H3C6H3C6H3C6H3C6H3C2NCHC2NCHC2NCHC2NCHCNHCNHC2NCHC2NCHCNHCNHC2NCHC2NCHC2NCHC2NCHCNHCNHCNHCNHCNHCNHCNHCNHC2NCHC2NCHCNHCNHC2NCHC2NCHCNHCNHCNHCNHC2NCHC2NCHC2NCHC2NCHC6H3C6H3C6H3C6H3C6H3C6H3C6H3C6H3C6H3C6H3C6H3C6H3C2NCHC2NCHC2NCHC2NCHCNHCNHC2NCHC2NCHCNHCNHC2NCHC2NCHC2NCHC2NCHCNHCNHCNHCNH
_chemical_formula_sum              "C288 N72 H144"
_cell_length_a       42.7134
_cell_length_b       55.3765
_cell_length_c       14.9268
_cell_angle_alpha    90
_cell_angle_beta     90
_cell_angle_gamma    90

_space_group_name_H-M_alt    "P 1"
_space_group_IT_number       1

loop_
  _space_group_symop_operation_xyz
  'x, y, z'

loop_
  _atom_site_type_symbol
  _atom_site_label
  _atom_site_symmetry_multiplicity
  _atom_site_fract_x
  _atom_site_fract_y
  _atom_site_fract_z
  _atom_site_occupancy
  C   C1        1.0  0.26222  0.18580  0.24039  1.0000
  N   N1        1.0  0.23131  0.18397  0.25464  1.0000
  H   H1        1.0  0.26998  0.20039  0.20501  1.0000
  C   C2        1.0  0.23862  0.85713  0.35185  1.0000
  N   N2        1.0  0.27042  0.85439  0.35648  1.0000
  H   H2        1.0  0.22984  0.87169  0.31838  1.0000
  C   C3        1.0  0.01830  0.68609  0.23301  1.0000
  N   N3        1.0  0.48710  0.68482  0.24319  1.0000
  H   H3        1.0  0.02702  0.70032  0.19747  1.0000
  C   C4        1.0  0.48880  0.31511  0.29100  1.0000
  N   N4        1.0  0.01989  0.31610  0.30049  1.0000
  H   H4        1.0  0.47985  0.30017  0.26032  1.0000
  C   C5        1.0  0.10996  0.13654  0.38379  1.0000
  C   C6        1.0  0.11183  0.11212  0.35497  1.0000
  N   N5        1.0  0.08562  0.09792  0.35708  1.0000
  C   C7        1.0  0.05752  0.10505  0.39190  1.0000
  H   H5        1.0  0.13110  0.10569  0.32241  1.0000
  C   C8        1.0  0.39558  0.86346  0.36001  1.0000
  C   C9        1.0  0.39143  0.88866  0.34616  1.0000
  N   N6        1.0  0.41701  0.90350  0.33871  1.0000
  C   C10       1.0  0.44738  0.89594  0.34651  1.0000
  H   H6        1.0  0.36975  0.89589  0.33629  1.0000
  C   C11       1.0  0.44884  0.13440  0.30681  1.0000
  N   N7        1.0  0.42354  0.14880  0.30286  1.0000
  H   H7        1.0  0.46975  0.14225  0.29159  1.0000
  C   C12       1.0  0.05975  0.87624  0.24575  1.0000
  N   N8        1.0  0.08474  0.86168  0.25577  1.0000
  H   H8        1.0  0.04097  0.86936  0.21216  1.0000
  C   C13       1.0  0.36265  0.64007  0.36485  1.0000
  C   C14       1.0  0.36434  0.61522  0.34160  1.0000
  N   N9        1.0  0.33808  0.60111  0.34686  1.0000
  C   C15       1.0  0.30970  0.60882  0.37804  1.0000
  H   H9        1.0  0.38391  0.60802  0.31306  1.0000
  C   C16       1.0  0.14772  0.36184  0.34907  1.0000
  C   C17       1.0  0.17885  0.35632  0.32458  1.0000
  N   N10       1.0  0.20028  0.37398  0.32317  1.0000
  C   C18       1.0  0.19588  0.39772  0.34227  1.0000
  H   H10       1.0  0.18618  0.33964  0.30501  1.0000
  C   C19       1.0  0.16470  0.60167  0.33687  1.0000
  N   N11       1.0  0.14224  0.61931  0.33084  1.0000
  H   H11       1.0  0.15995  0.58494  0.31169  1.0000
  C   C20       1.0  0.30744  0.37525  0.27748  1.0000
  N   N12       1.0  0.33208  0.36026  0.28342  1.0000
  H   H12       1.0  0.28764  0.36846  0.24865  1.0000
  C   C21       1.0  0.14627  0.26568  0.31623  1.0000
  N   N13       1.0  0.15164  0.24156  0.31647  1.0000
  H   H13       1.0  0.16085  0.27668  0.28052  1.0000
  C   C22       1.0  0.40248  0.74622  0.29187  1.0000
  N   N14       1.0  0.39301  0.76936  0.30528  1.0000
  H   H14       1.0  0.41878  0.74303  0.24331  1.0000
  C   C23       1.0  0.36613  0.22900  0.30784  1.0000
  C   C24       1.0  0.35226  0.24747  0.25545  1.0000
  N   N15       1.0  0.36093  0.27083  0.26810  1.0000
  C   C25       1.0  0.38210  0.27798  0.33082  1.0000
  H   H15       1.0  0.33640  0.24360  0.20629  1.0000
  C   C26       1.0  0.13421  0.77998  0.32819  1.0000
  C   C27       1.0  0.11112  0.77065  0.26982  1.0000
  N   N16       1.0  0.10510  0.74655  0.26993  1.0000
  C   C28       1.0  0.11982  0.73009  0.32337  1.0000
  H   H16       1.0  0.09946  0.78140  0.22544  1.0000
  C   C29       1.0  0.99840  0.02807  0.34211  1.0000
  C   C30       1.0  0.97348  0.01382  0.30815  1.0000
  N   N17       1.0  0.97589  0.98928  0.30710  1.0000
  C   C31       1.0  0.00108  0.97657  0.33766  1.0000
  H   H17       1.0  0.95378  0.02138  0.28183  1.0000
  C   C32       1.0  0.25390  0.52941  0.34741  1.0000
  C   C33       1.0  0.27854  0.51538  0.31103  1.0000
  N   N18       1.0  0.27648  0.49085  0.31162  1.0000
  C   C34       1.0  0.25202  0.47795  0.34585  1.0000
  H   H18       1.0  0.29771  0.52320  0.28231  1.0000
  C   C35       1.0  0.14286  0.19953  0.35462  1.0000
  C   C36       1.0  0.17335  0.19343  0.32644  1.0000
  C   C37       1.0  0.18491  0.16942  0.32239  1.0000
  C   C38       1.0  0.16392  0.15061  0.34514  1.0000
  C   C39       1.0  0.13239  0.15525  0.37001  1.0000
  C   C40       1.0  0.12303  0.17995  0.37654  1.0000
  H   H19       1.0  0.17168  0.13320  0.34156  1.0000
  H   H20       1.0  0.10033  0.18391  0.39191  1.0000
  H   H21       1.0  0.18847  0.20736  0.31430  1.0000
  C   C41       1.0  0.36107  0.80061  0.37192  1.0000
  C   C42       1.0  0.32925  0.80641  0.38192  1.0000
  C   C43       1.0  0.31777  0.83047  0.38274  1.0000
  C   C44       1.0  0.33983  0.84931  0.36919  1.0000
  C   C45       1.0  0.37257  0.84477  0.36415  1.0000
  C   C46       1.0  0.38218  0.82006  0.36402  1.0000
  H   H22       1.0  0.33198  0.86673  0.37050  1.0000
  H   H23       1.0  0.40534  0.81574  0.35708  1.0000
  H   H24       1.0  0.31379  0.79234  0.38044  1.0000
  C   C47       1.0  0.35738  0.20412  0.30173  1.0000
  C   C48       1.0  0.32579  0.19780  0.29053  1.0000
  C   C49       1.0  0.31504  0.17357  0.29026  1.0000
  C   C50       1.0  0.33751  0.15513  0.30495  1.0000
  C   C51       1.0  0.37009  0.16020  0.31063  1.0000
  C   C52       1.0  0.37905  0.18506  0.31072  1.0000
  H   H25       1.0  0.33005  0.13761  0.30391  1.0000
  H   H26       1.0  0.40207  0.18975  0.31827  1.0000
  H   H27       1.0  0.30991  0.21160  0.29146  1.0000
  C   C53       1.0  0.14394  0.80482  0.33097  1.0000
  C   C54       1.0  0.17457  0.81058  0.35851  1.0000
  C   C55       1.0  0.18674  0.83446  0.35950  1.0000
  C   C56       1.0  0.16587  0.85339  0.33648  1.0000
  C   C57       1.0  0.13420  0.84898  0.31213  1.0000
  C   C58       1.0  0.12443  0.82437  0.30713  1.0000
  H   H28       1.0  0.17390  0.87075  0.33825  1.0000
  H   H29       1.0  0.10167  0.82042  0.29203  1.0000
  H   H30       1.0  0.18925  0.79640  0.37130  1.0000
  C   C59       1.0  0.39793  0.70225  0.33505  1.0000
  C   C60       1.0  0.42844  0.69571  0.30889  1.0000
  C   C61       1.0  0.43928  0.67146  0.30683  1.0000
  C   C62       1.0  0.41744  0.65307  0.32850  1.0000
  C   C63       1.0  0.38582  0.65829  0.35110  1.0000
  C   C64       1.0  0.37733  0.68318  0.35689  1.0000
  H   H31       1.0  0.42472  0.63553  0.32607  1.0000
  H   H32       1.0  0.35483  0.68782  0.37285  1.0000
  H   H33       1.0  0.44416  0.70939  0.29958  1.0000
  C   C65       1.0  0.11105  0.29962  0.36031  1.0000
  C   C66       1.0  0.07941  0.30606  0.35268  1.0000
  C   C67       1.0  0.06887  0.33041  0.34852  1.0000
  C   C68       1.0  0.09183  0.34888  0.35491  1.0000
  C   C69       1.0  0.12440  0.34347  0.35572  1.0000
  C   C70       1.0  0.13295  0.31861  0.36132  1.0000
  H   H34       1.0  0.08488  0.36649  0.34923  1.0000
  H   H35       1.0  0.15573  0.31383  0.37121  1.0000
  H   H36       1.0  0.06354  0.29221  0.35127  1.0000
  C   C71       1.0  0.11114  0.70507  0.32004  1.0000
  C   C72       1.0  0.08039  0.69846  0.29727  1.0000
  C   C73       1.0  0.06977  0.67415  0.29546  1.0000
  C   C74       1.0  0.09178  0.65591  0.31828  1.0000
  C   C75       1.0  0.12349  0.66130  0.33965  1.0000
  C   C76       1.0  0.13216  0.68616  0.33954  1.0000
  H   H37       1.0  0.08458  0.63828  0.31825  1.0000
  H   H38       1.0  0.15499  0.69097  0.34783  1.0000
  H   H39       1.0  0.06470  0.71223  0.28988  1.0000
  C   C77       1.0  0.39239  0.30256  0.33289  1.0000
  C   C78       1.0  0.42451  0.30761  0.33840  1.0000
  C   C79       1.0  0.43715  0.33124  0.33238  1.0000
  C   C80       1.0  0.41563  0.35077  0.33328  1.0000
  C   C81       1.0  0.38283  0.34691  0.32395  1.0000
  C   C82       1.0  0.37220  0.32243  0.32114  1.0000
  H   H40       1.0  0.42425  0.36798  0.33015  1.0000
  H   H41       1.0  0.34880  0.31869  0.31626  1.0000
  H   H42       1.0  0.43919  0.29324  0.34683  1.0000
  C   C83       1.0  0.02936  0.09183  0.37633  1.0000
  C   C84       1.0  0.50093  0.10461  0.36703  1.0000
  C   C85       1.0  0.47189  0.09420  0.34318  1.0000
  C   C86       1.0  0.47127  0.06861  0.33912  1.0000
  C   C87       1.0  0.99891  0.05420  0.34691  1.0000
  C   C88       1.0  0.02782  0.06663  0.36090  1.0000
  H   H43       1.0  0.45022  0.06051  0.32729  1.0000
  H   H44       1.0  0.04820  0.05702  0.36555  1.0000
  H   H45       1.0  0.50157  0.12273  0.37623  1.0000
  C   C89       1.0  0.47392  0.91115  0.33112  1.0000
  C   C90       1.0  0.00283  0.90050  0.30701  1.0000
  C   C91       1.0  0.03165  0.91289  0.30013  1.0000
  C   C92       1.0  0.03060  0.93803  0.31712  1.0000
  C   C93       1.0  0.50185  0.95062  0.33071  1.0000
  C   C94       1.0  0.47375  0.93674  0.33599  1.0000
  H   H46       1.0  0.05101  0.94755  0.31135  1.0000
  H   H47       1.0  0.45311  0.94527  0.35051  1.0000
  H   H48       1.0  0.00301  0.88243  0.29605  1.0000
  C   C95       1.0  0.28198  0.59441  0.37196  1.0000
  C   C96       1.0  0.25227  0.60567  0.37362  1.0000
  C   C97       1.0  0.22312  0.59363  0.36554  1.0000
  C   C98       1.0  0.22467  0.56826  0.35408  1.0000
  C   C99       1.0  0.25362  0.55541  0.35217  1.0000
  C   C100      1.0  0.28185  0.56906  0.35891  1.0000
  H   H49       1.0  0.20415  0.55887  0.34866  1.0000
  H   H50       1.0  0.30287  0.56025  0.35974  1.0000
  H   H51       1.0  0.25187  0.62403  0.37111  1.0000
  C   C101      1.0  0.22316  0.41273  0.34073  1.0000
  C   C102      1.0  0.25278  0.40142  0.33459  1.0000
  C   C103      1.0  0.28183  0.41334  0.32527  1.0000
  C   C104      1.0  0.28086  0.43882  0.33351  1.0000
  C   C105      1.0  0.25214  0.45187  0.34253  1.0000
  C   C106      1.0  0.22372  0.43827  0.34488  1.0000
  H   H52       1.0  0.30157  0.44805  0.32997  1.0000
  H   H53       1.0  0.20275  0.44707  0.34689  1.0000
  H   H54       1.0  0.25354  0.38322  0.34446  1.0000
  C   C107      1.0  0.21692  0.16590  0.30019  1.0000
  C   C108      1.0  0.23659  0.14662  0.32720  1.0000
  N   N19       1.0  0.26831  0.14943  0.32039  1.0000
  C   C109      1.0  0.28247  0.16895  0.28159  1.0000
  H   H55       1.0  0.22806  0.13244  0.36343  1.0000
  C   C110      1.0  0.28506  0.83459  0.39178  1.0000
  C   C111      1.0  0.26513  0.81724  0.43149  1.0000
  N   N20       1.0  0.23408  0.81923  0.42023  1.0000
  C   C112      1.0  0.21913  0.83767  0.37827  1.0000
  H   H56       1.0  0.27317  0.80244  0.46504  1.0000
  C   C113      1.0  0.47153  0.66733  0.28872  1.0000
  C   C114      1.0  0.49030  0.64802  0.32044  1.0000
  N   N21       1.0  0.02218  0.65048  0.31836  1.0000
  C   C115      1.0  0.03750  0.66945  0.27938  1.0000
  H   H57       1.0  0.48084  0.63431  0.35722  1.0000
  C   C116      1.0  0.03630  0.33461  0.33668  1.0000
  C   C117      1.0  0.01833  0.35538  0.35779  1.0000
  N   N22       1.0  0.48629  0.35395  0.35453  1.0000
  C   C118      1.0  0.47019  0.33400  0.32603  1.0000
  H   H58       1.0  0.02852  0.37035  0.38491  1.0000
  C   C119      1.0  0.05754  0.12812  0.43305  1.0000
  N   N23       1.0  0.08265  0.14262  0.42435  1.0000
  H   H59       1.0  0.03864  0.13496  0.46618  1.0000
  C   C120      1.0  0.45088  0.87123  0.36952  1.0000
  N   N24       1.0  0.42572  0.85672  0.37350  1.0000
  H   H60       1.0  0.47184  0.86356  0.38562  1.0000
  C   C121      1.0  0.39344  0.14179  0.31521  1.0000
  C   C122      1.0  0.38950  0.11654  0.32815  1.0000
  N   N25       1.0  0.41518  0.10184  0.33526  1.0000
  C   C123      1.0  0.44548  0.10957  0.32815  1.0000
  H   H61       1.0  0.36791  0.10910  0.33726  1.0000
  C   C124      1.0  0.11197  0.86775  0.29687  1.0000
  C   C125      1.0  0.11392  0.89223  0.32479  1.0000
  N   N26       1.0  0.08778  0.90650  0.32138  1.0000
  C   C126      1.0  0.05973  0.89942  0.28598  1.0000
  H   H62       1.0  0.13312  0.89863  0.35771  1.0000
  C   C127      1.0  0.30948  0.63284  0.41105  1.0000
  N   N27       1.0  0.33489  0.64697  0.40094  1.0000
  H   H63       1.0  0.29062  0.64045  0.44190  1.0000
  C   C128      1.0  0.16425  0.40382  0.35994  1.0000
  N   N28       1.0  0.14204  0.38592  0.36338  1.0000
  H   H64       1.0  0.15786  0.42114  0.37421  1.0000
  C   C129      1.0  0.14618  0.64290  0.35651  1.0000
  C   C130      1.0  0.17541  0.64798  0.39667  1.0000
  N   N29       1.0  0.19770  0.63086  0.39775  1.0000
  C   C131      1.0  0.19517  0.60787  0.36660  1.0000
  H   H65       1.0  0.18098  0.66422  0.42435  1.0000
  C   C132      1.0  0.36064  0.36607  0.31660  1.0000
  C   C133      1.0  0.36423  0.39079  0.34015  1.0000
  N   N30       1.0  0.33863  0.40577  0.34027  1.0000
  C   C134      1.0  0.30932  0.39892  0.31342  1.0000
  H   H66       1.0  0.38479  0.39712  0.36577  1.0000
  C   C135      1.0  0.13367  0.22461  0.35853  1.0000
  C   C136      1.0  0.10723  0.23381  0.40442  1.0000
  N   N31       1.0  0.10145  0.25797  0.40363  1.0000
  C   C137      1.0  0.11983  0.27468  0.36189  1.0000
  H   H67       1.0  0.09238  0.22290  0.43933  1.0000
  C   C138      1.0  0.37085  0.77592  0.36601  1.0000
  C   C139      1.0  0.35712  0.75702  0.41635  1.0000
  N   N32       1.0  0.36666  0.73390  0.40285  1.0000
  C   C140      1.0  0.38891  0.72721  0.34238  1.0000
  H   H68       1.0  0.34041  0.76033  0.46370  1.0000
  C   C141      1.0  0.39560  0.25953  0.38410  1.0000
  N   N33       1.0  0.38722  0.23615  0.37073  1.0000
  H   H69       1.0  0.41167  0.26334  0.43277  1.0000
  C   C142      1.0  0.14265  0.73943  0.38239  1.0000
  N   N34       1.0  0.14869  0.76347  0.38193  1.0000
  H   H70       1.0  0.15438  0.72869  0.42673  1.0000
  C   C143      1.0  0.02587  0.99069  0.37247  1.0000
  N   N35       1.0  0.02337  0.01516  0.37315  1.0000
  H   H71       1.0  0.04556  0.98301  0.39865  1.0000
  C   C144      1.0  0.22750  0.49205  0.38272  1.0000
  N   N36       1.0  0.22952  0.51655  0.38200  1.0000
  H   H72       1.0  0.20842  0.48438  0.41236  1.0000
  C   C145      1.0  0.76222  0.18580  0.24039  1.0000
  N   N37       1.0  0.73131  0.18397  0.25464  1.0000
  H   H73       1.0  0.76998  0.20039  0.20501  1.0000
  C   C146      1.0  0.73862  0.85713  0.35185  1.0000
  N   N38       1.0  0.77042  0.85439  0.35648  1.0000
  H   H74       1.0  0.72984  0.87169  0.31838  1.0000
  C   C147      1.0  0.51830  0.68609  0.23301  1.0000
  N   N39       1.0  0.98710  0.68482  0.24319  1.0000
  H   H75       1.0  0.52702  0.70032  0.19747  1.0000
  C   C148      1.0  0.98880  0.31511  0.29100  1.0000
  N   N40       1.0  0.51989  0.31610  0.30049  1.0000
  H   H76       1.0  0.97986  0.30017  0.26032  1.0000
  C   C149      1.0  0.60996  0.13654  0.38379  1.0000
  C   C150      1.0  0.61183  0.11212  0.35497  1.0000
  N   N41       1.0  0.58562  0.09792  0.35708  1.0000
  C   C151      1.0  0.55752  0.10505  0.39190  1.0000
  H   H77       1.0  0.63110  0.10569  0.32241  1.0000
  C   C152      1.0  0.89558  0.86346  0.36001  1.0000
  C   C153      1.0  0.89143  0.88866  0.34616  1.0000
  N   N42       1.0  0.91701  0.90350  0.33871  1.0000
  C   C154      1.0  0.94738  0.89594  0.34651  1.0000
  H   H78       1.0  0.86975  0.89589  0.33629  1.0000
  C   C155      1.0  0.94884  0.13440  0.30681  1.0000
  N   N43       1.0  0.92354  0.14880  0.30286  1.0000
  H   H79       1.0  0.96975  0.14225  0.29159  1.0000
  C   C156      1.0  0.55975  0.87624  0.24575  1.0000
  N   N44       1.0  0.58474  0.86168  0.25577  1.0000
  H   H80       1.0  0.54097  0.86936  0.21216  1.0000
  C   C157      1.0  0.86265  0.64007  0.36485  1.0000
  C   C158      1.0  0.86434  0.61522  0.34160  1.0000
  N   N45       1.0  0.83808  0.60111  0.34686  1.0000
  C   C159      1.0  0.80970  0.60882  0.37804  1.0000
  H   H81       1.0  0.88391  0.60802  0.31306  1.0000
  C   C160      1.0  0.64772  0.36184  0.34907  1.0000
  C   C161      1.0  0.67885  0.35632  0.32458  1.0000
  N   N46       1.0  0.70029  0.37398  0.32317  1.0000
  C   C162      1.0  0.69588  0.39772  0.34227  1.0000
  H   H82       1.0  0.68617  0.33964  0.30501  1.0000
  C   C163      1.0  0.66470  0.60167  0.33687  1.0000
  N   N47       1.0  0.64224  0.61931  0.33084  1.0000
  H   H83       1.0  0.65995  0.58494  0.31169  1.0000
  C   C164      1.0  0.80744  0.37525  0.27748  1.0000
  N   N48       1.0  0.83208  0.36026  0.28342  1.0000
  H   H84       1.0  0.78764  0.36846  0.24865  1.0000
  C   C165      1.0  0.64627  0.26568  0.31623  1.0000
  N   N49       1.0  0.65164  0.24156  0.31647  1.0000
  H   H85       1.0  0.66085  0.27668  0.28052  1.0000
  C   C166      1.0  0.90248  0.74622  0.29187  1.0000
  N   N50       1.0  0.89301  0.76936  0.30528  1.0000
  H   H86       1.0  0.91878  0.74303  0.24331  1.0000
  C   C167      1.0  0.86613  0.22900  0.30784  1.0000
  C   C168      1.0  0.85227  0.24747  0.25545  1.0000
  N   N51       1.0  0.86093  0.27083  0.26810  1.0000
  C   C169      1.0  0.88210  0.27798  0.33082  1.0000
  H   H87       1.0  0.83640  0.24360  0.20629  1.0000
  C   C170      1.0  0.63421  0.77998  0.32819  1.0000
  C   C171      1.0  0.61112  0.77065  0.26982  1.0000
  N   N52       1.0  0.60510  0.74655  0.26993  1.0000
  C   C172      1.0  0.61982  0.73009  0.32337  1.0000
  H   H88       1.0  0.59946  0.78140  0.22544  1.0000
  C   C173      1.0  0.49840  0.02807  0.34211  1.0000
  C   C174      1.0  0.47348  0.01382  0.30815  1.0000
  N   N53       1.0  0.47590  0.98928  0.30710  1.0000
  C   C175      1.0  0.50108  0.97657  0.33766  1.0000
  H   H89       1.0  0.45377  0.02138  0.28183  1.0000
  C   C176      1.0  0.75390  0.52941  0.34741  1.0000
  C   C177      1.0  0.77854  0.51538  0.31103  1.0000
  N   N54       1.0  0.77648  0.49085  0.31162  1.0000
  C   C178      1.0  0.75202  0.47795  0.34585  1.0000
  H   H90       1.0  0.79771  0.52320  0.28231  1.0000
  C   C179      1.0  0.64286  0.19953  0.35462  1.0000
  C   C180      1.0  0.67335  0.19343  0.32644  1.0000
  C   C181      1.0  0.68491  0.16942  0.32239  1.0000
  C   C182      1.0  0.66392  0.15061  0.34514  1.0000
  C   C183      1.0  0.63239  0.15525  0.37001  1.0000
  C   C184      1.0  0.62303  0.17995  0.37654  1.0000
  H   H91       1.0  0.67168  0.13320  0.34156  1.0000
  H   H92       1.0  0.60033  0.18391  0.39191  1.0000
  H   H93       1.0  0.68848  0.20736  0.31430  1.0000
  C   C185      1.0  0.86107  0.80061  0.37192  1.0000
  C   C186      1.0  0.82925  0.80641  0.38192  1.0000
  C   C187      1.0  0.81777  0.83047  0.38274  1.0000
  C   C188      1.0  0.83983  0.84931  0.36919  1.0000
  C   C189      1.0  0.87257  0.84477  0.36415  1.0000
  C   C190      1.0  0.88218  0.82006  0.36402  1.0000
  H   H94       1.0  0.83198  0.86673  0.37050  1.0000
  H   H95       1.0  0.90535  0.81574  0.35708  1.0000
  H   H96       1.0  0.81379  0.79234  0.38044  1.0000
  C   C191      1.0  0.85738  0.20412  0.30173  1.0000
  C   C192      1.0  0.82579  0.19780  0.29053  1.0000
  C   C193      1.0  0.81503  0.17357  0.29026  1.0000
  C   C194      1.0  0.83751  0.15513  0.30495  1.0000
  C   C195      1.0  0.87009  0.16020  0.31063  1.0000
  C   C196      1.0  0.87905  0.18506  0.31072  1.0000
  H   H97       1.0  0.83005  0.13761  0.30391  1.0000
  H   H98       1.0  0.90207  0.18975  0.31827  1.0000
  H   H99       1.0  0.80991  0.21160  0.29146  1.0000
  C   C197      1.0  0.64394  0.80482  0.33097  1.0000
  C   C198      1.0  0.67457  0.81058  0.35851  1.0000
  C   C199      1.0  0.68674  0.83446  0.35950  1.0000
  C   C200      1.0  0.66587  0.85339  0.33648  1.0000
  C   C201      1.0  0.63420  0.84898  0.31213  1.0000
  C   C202      1.0  0.62443  0.82437  0.30713  1.0000
  H   H100      1.0  0.67390  0.87075  0.33825  1.0000
  H   H101      1.0  0.60167  0.82042  0.29203  1.0000
  H   H102      1.0  0.68925  0.79640  0.37130  1.0000
  C   C203      1.0  0.89793  0.70225  0.33505  1.0000
  C   C204      1.0  0.92844  0.69571  0.30889  1.0000
  C   C205      1.0  0.93928  0.67146  0.30683  1.0000
  C   C206      1.0  0.91744  0.65307  0.32850  1.0000
  C   C207      1.0  0.88582  0.65829  0.35110  1.0000
  C   C208      1.0  0.87733  0.68318  0.35689  1.0000
  H   H103      1.0  0.92472  0.63553  0.32607  1.0000
  H   H104      1.0  0.85483  0.68782  0.37285  1.0000
  H   H105      1.0  0.94416  0.70939  0.29958  1.0000
  C   C209      1.0  0.61105  0.29962  0.36031  1.0000
  C   C210      1.0  0.57941  0.30606  0.35268  1.0000
  C   C211      1.0  0.56887  0.33041  0.34852  1.0000
  C   C212      1.0  0.59183  0.34888  0.35491  1.0000
  C   C213      1.0  0.62440  0.34347  0.35572  1.0000
  C   C214      1.0  0.63295  0.31861  0.36132  1.0000
  H   H106      1.0  0.58488  0.36649  0.34923  1.0000
  H   H107      1.0  0.65573  0.31383  0.37121  1.0000
  H   H108      1.0  0.56354  0.29221  0.35127  1.0000
  C   C215      1.0  0.61114  0.70507  0.32004  1.0000
  C   C216      1.0  0.58039  0.69846  0.29727  1.0000
  C   C217      1.0  0.56977  0.67415  0.29546  1.0000
  C   C218      1.0  0.59178  0.65591  0.31828  1.0000
  C   C219      1.0  0.62349  0.66130  0.33965  1.0000
  C   C220      1.0  0.63216  0.68616  0.33954  1.0000
  H   H109      1.0  0.58458  0.63828  0.31825  1.0000
  H   H110      1.0  0.65499  0.69097  0.34783  1.0000
  H   H111      1.0  0.56470  0.71223  0.28988  1.0000
  C   C221      1.0  0.89239  0.30256  0.33289  1.0000
  C   C222      1.0  0.92451  0.30761  0.33840  1.0000
  C   C223      1.0  0.93715  0.33124  0.33238  1.0000
  C   C224      1.0  0.91563  0.35077  0.33328  1.0000
  C   C225      1.0  0.88283  0.34691  0.32395  1.0000
  C   C226      1.0  0.87220  0.32243  0.32114  1.0000
  H   H112      1.0  0.92426  0.36798  0.33015  1.0000
  H   H113      1.0  0.84880  0.31869  0.31626  1.0000
  H   H114      1.0  0.93919  0.29324  0.34683  1.0000
  C   C227      1.0  0.52936  0.09183  0.37633  1.0000
  C   C228      1.0  0.00093  0.10461  0.36703  1.0000
  C   C229      1.0  0.97189  0.09420  0.34318  1.0000
  C   C230      1.0  0.97127  0.06861  0.33912  1.0000
  C   C231      1.0  0.49891  0.05420  0.34691  1.0000
  C   C232      1.0  0.52782  0.06663  0.36090  1.0000
  H   H115      1.0  0.95022  0.06051  0.32729  1.0000
  H   H116      1.0  0.54821  0.05702  0.36555  1.0000
  H   H117      1.0  0.00157  0.12273  0.37623  1.0000
  C   C233      1.0  0.97392  0.91115  0.33112  1.0000
  C   C234      1.0  0.50283  0.90050  0.30701  1.0000
  C   C235      1.0  0.53165  0.91289  0.30013  1.0000
  C   C236      1.0  0.53060  0.93803  0.31712  1.0000
  C   C237      1.0  0.00185  0.95062  0.33071  1.0000
  C   C238      1.0  0.97375  0.93674  0.33599  1.0000
  H   H118      1.0  0.55100  0.94755  0.31135  1.0000
  H   H119      1.0  0.95311  0.94527  0.35051  1.0000
  H   H120      1.0  0.50301  0.88243  0.29605  1.0000
  C   C239      1.0  0.78198  0.59441  0.37196  1.0000
  C   C240      1.0  0.75227  0.60567  0.37362  1.0000
  C   C241      1.0  0.72312  0.59363  0.36554  1.0000
  C   C242      1.0  0.72467  0.56826  0.35408  1.0000
  C   C243      1.0  0.75362  0.55541  0.35217  1.0000
  C   C244      1.0  0.78185  0.56906  0.35891  1.0000
  H   H121      1.0  0.70415  0.55887  0.34866  1.0000
  H   H122      1.0  0.80287  0.56025  0.35974  1.0000
  H   H123      1.0  0.75187  0.62403  0.37111  1.0000
  C   C245      1.0  0.72316  0.41273  0.34073  1.0000
  C   C246      1.0  0.75278  0.40142  0.33459  1.0000
  C   C247      1.0  0.78183  0.41334  0.32527  1.0000
  C   C248      1.0  0.78086  0.43882  0.33351  1.0000
  C   C249      1.0  0.75214  0.45187  0.34253  1.0000
  C   C250      1.0  0.72372  0.43827  0.34488  1.0000
  H   H124      1.0  0.80157  0.44805  0.32997  1.0000
  H   H125      1.0  0.70275  0.44707  0.34689  1.0000
  H   H126      1.0  0.75354  0.38322  0.34446  1.0000
  C   C251      1.0  0.71693  0.16590  0.30019  1.0000
  C   C252      1.0  0.73659  0.14662  0.32720  1.0000
  N   N55       1.0  0.76831  0.14943  0.32039  1.0000
  C   C253      1.0  0.78247  0.16895  0.28159  1.0000
  H   H127      1.0  0.72806  0.13244  0.36343  1.0000
  C   C254      1.0  0.78506  0.83459  0.39178  1.0000
  C   C255      1.0  0.76513  0.81724  0.43149  1.0000
  N   N56       1.0  0.73408  0.81923  0.42023  1.0000
  C   C256      1.0  0.71913  0.83767  0.37827  1.0000
  H   H128      1.0  0.77317  0.80244  0.46504  1.0000
  C   C257      1.0  0.97153  0.66733  0.28872  1.0000
  C   C258      1.0  0.99030  0.64802  0.32044  1.0000
  N   N57       1.0  0.52218  0.65048  0.31836  1.0000
  C   C259      1.0  0.53750  0.66945  0.27938  1.0000
  H   H129      1.0  0.98084  0.63431  0.35722  1.0000
  C   C260      1.0  0.53631  0.33461  0.33668  1.0000
  C   C261      1.0  0.51833  0.35538  0.35779  1.0000
  N   N58       1.0  0.98629  0.35395  0.35453  1.0000
  C   C262      1.0  0.97019  0.33400  0.32603  1.0000
  H   H130      1.0  0.52852  0.37035  0.38491  1.0000
  C   C263      1.0  0.55755  0.12812  0.43305  1.0000
  N   N59       1.0  0.58265  0.14262  0.42435  1.0000
  H   H131      1.0  0.53864  0.13496  0.46618  1.0000
  C   C264      1.0  0.95088  0.87123  0.36952  1.0000
  N   N60       1.0  0.92572  0.85672  0.37350  1.0000
  H   H132      1.0  0.97184  0.86356  0.38562  1.0000
  C   C265      1.0  0.89344  0.14179  0.31521  1.0000
  C   C266      1.0  0.88951  0.11654  0.32815  1.0000
  N   N61       1.0  0.91518  0.10184  0.33526  1.0000
  C   C267      1.0  0.94548  0.10957  0.32815  1.0000
  H   H133      1.0  0.86791  0.10910  0.33726  1.0000
  C   C268      1.0  0.61197  0.86775  0.29687  1.0000
  C   C269      1.0  0.61392  0.89223  0.32479  1.0000
  N   N62       1.0  0.58778  0.90650  0.32138  1.0000
  C   C270      1.0  0.55973  0.89942  0.28598  1.0000
  H   H134      1.0  0.63312  0.89863  0.35771  1.0000
  C   C271      1.0  0.80948  0.63284  0.41105  1.0000
  N   N63       1.0  0.83490  0.64697  0.40094  1.0000
  H   H135      1.0  0.79062  0.64045  0.44190  1.0000
  C   C272      1.0  0.66425  0.40382  0.35994  1.0000
  N   N64       1.0  0.64204  0.38592  0.36338  1.0000
  H   H136      1.0  0.65786  0.42114  0.37421  1.0000
  C   C273      1.0  0.64618  0.64290  0.35651  1.0000
  C   C274      1.0  0.67541  0.64798  0.39667  1.0000
  N   N65       1.0  0.69770  0.63086  0.39775  1.0000
  C   C275      1.0  0.69518  0.60787  0.36660  1.0000
  H   H137      1.0  0.68098  0.66422  0.42435  1.0000
  C   C276      1.0  0.86064  0.36607  0.31660  1.0000
  C   C277      1.0  0.86423  0.39079  0.34015  1.0000
  N   N66       1.0  0.83863  0.40577  0.34027  1.0000
  C   C278      1.0  0.80932  0.39892  0.31342  1.0000
  H   H138      1.0  0.88479  0.39712  0.36577  1.0000
  C   C279      1.0  0.63367  0.22461  0.35853  1.0000
  C   C280      1.0  0.60723  0.23381  0.40442  1.0000
  N   N67       1.0  0.60145  0.25797  0.40363  1.0000
  C   C281      1.0  0.61983  0.27468  0.36189  1.0000
  H   H139      1.0  0.59238  0.22290  0.43933  1.0000
  C   C282      1.0  0.87085  0.77592  0.36601  1.0000
  C   C283      1.0  0.85713  0.75702  0.41635  1.0000
  N   N68       1.0  0.86665  0.73390  0.40285  1.0000
  C   C284      1.0  0.88891  0.72721  0.34238  1.0000
  H   H140      1.0  0.84041  0.76033  0.46370  1.0000
  C   C285      1.0  0.89560  0.25953  0.38410  1.0000
  N   N69       1.0  0.88722  0.23615  0.37073  1.0000
  H   H141      1.0  0.91166  0.26334  0.43277  1.0000
  C   C286      1.0  0.64265  0.73943  0.38239  1.0000
  N   N70       1.0  0.64869  0.76347  0.38193  1.0000
  H   H142      1.0  0.65438  0.72869  0.42673  1.0000
  C   C287      1.0  0.52587  0.99069  0.37247  1.0000
  N   N71       1.0  0.52337  0.01516  0.37315  1.0000
  H   H143      1.0  0.54556  0.98301  0.39865  1.0000
  C   C288      1.0  0.72750  0.49205  0.38272  1.0000
  N   N72       1.0  0.72952  0.51655  0.38200  1.0000
  H   H144      1.0  0.70842  0.48438  0.41236  1.0000
