data_image0
_chemical_formula_structural       C2NC2O2HC2NC2O2HC2NC2O2HNCHNCHNCHNCHNCHNCHNC18H12NC18H12NC18H12NC18H12NC18H12NC18H12NCHNCHNCHC2NC2O2HC2NC2O2HC2NC2O2HC2NC2O2HC2NC2O2HC2NC2O2H
_chemical_formula_sum              "C153 N24 O18 H90"
_cell_length_a       52.3303
_cell_length_b       52.3303
_cell_length_c       14.8825
_cell_angle_alpha    90
_cell_angle_beta     90
_cell_angle_gamma    120

_space_group_name_H-M_alt    "P 1"
_space_group_IT_number       1

loop_
  _space_group_symop_operation_xyz
  'x, y, z'

loop_
  _atom_site_type_symbol
  _atom_site_label
  _atom_site_symmetry_multiplicity
  _atom_site_fract_x
  _atom_site_fract_y
  _atom_site_fract_z
  _atom_site_occupancy
  C   C1        1.0  0.03695  0.51967  0.33661  1.0000
  C   C2        1.0  0.97446  0.48758  0.34756  1.0000
  N   N1        1.0  0.98920  0.50085  0.27058  1.0000
  C   C3        1.0  0.01909  0.51647  0.26051  1.0000
  C   C4        1.0  0.03003  0.53010  0.17834  1.0000
  O   O1        1.0  0.01847  0.51620  0.10982  1.0000
  O   O2        1.0  0.04238  0.55721  0.16986  1.0000
  H   H1        1.0  0.04961  0.57006  0.21462  1.0000
  C   C5        1.0  0.49016  0.51924  0.33663  1.0000
  C   C6        1.0  0.52226  0.48885  0.34750  1.0000
  N   N2        1.0  0.50897  0.49030  0.27055  1.0000
  C   C7        1.0  0.49332  0.50455  0.26054  1.0000
  C   C8        1.0  0.47970  0.50189  0.17836  1.0000
  O   O3        1.0  0.49360  0.50422  0.10985  1.0000
  O   O4        1.0  0.45259  0.48716  0.16986  1.0000
  H   H2        1.0  0.43974  0.48154  0.21462  1.0000
  C   C9        1.0  0.49057  0.97288  0.33655  1.0000
  C   C10       1.0  0.52098  0.03536  0.34746  1.0000
  N   N3        1.0  0.51950  0.02062  0.27048  1.0000
  C   C11       1.0  0.50522  0.99073  0.26043  1.0000
  C   C12       1.0  0.50793  0.97978  0.17824  1.0000
  O   O5        1.0  0.50517  0.99116  0.10993  1.0000
  O   O6        1.0  0.52282  0.96757  0.16998  1.0000
  H   H3        1.0  0.52856  0.96048  0.21484  1.0000
  N   N4        1.0  0.27260  0.56593  0.28155  1.0000
  C   C13       1.0  0.29900  0.56733  0.27148  1.0000
  H   H4        1.0  0.31214  0.57924  0.21905  1.0000
  N   N5        1.0  0.44392  0.70864  0.28178  1.0000
  C   C14       1.0  0.44251  0.73365  0.27174  1.0000
  H   H5        1.0  0.43069  0.73491  0.21911  1.0000
  N   N6        1.0  0.30121  0.73724  0.28152  1.0000
  C   C15       1.0  0.27619  0.71084  0.27143  1.0000
  H   H6        1.0  0.27497  0.69769  0.21901  1.0000
  N   N7        1.0  0.74154  0.44378  0.27646  1.0000
  C   C16       1.0  0.71529  0.44266  0.26516  1.0000
  H   H7        1.0  0.70293  0.43168  0.21044  1.0000
  N   N8        1.0  0.56616  0.29975  0.27649  1.0000
  C   C17       1.0  0.56730  0.27464  0.26522  1.0000
  H   H8        1.0  0.57816  0.27320  0.21029  1.0000
  N   N9        1.0  0.71015  0.26829  0.27654  1.0000
  C   C18       1.0  0.73526  0.29454  0.26526  1.0000
  H   H9        1.0  0.73665  0.30690  0.21053  1.0000
  N   N10       1.0  0.16332  0.58184  0.34874  1.0000
  C   C19       1.0  0.18001  0.61311  0.34320  1.0000
  C   C20       1.0  0.13198  0.56623  0.34518  1.0000
  C   C21       1.0  0.18024  0.56744  0.35193  1.0000
  C   C22       1.0  0.19409  0.56720  0.43304  1.0000
  C   C23       1.0  0.21736  0.56101  0.43341  1.0000
  C   C24       1.0  0.22729  0.55437  0.35288  1.0000
  C   C25       1.0  0.21252  0.55359  0.27222  1.0000
  C   C26       1.0  0.18955  0.56021  0.27164  1.0000
  C   C27       1.0  0.19057  0.62998  0.42249  1.0000
  C   C28       1.0  0.21373  0.65946  0.41942  1.0000
  C   C29       1.0  0.22758  0.67295  0.33712  1.0000
  C   C30       1.0  0.21565  0.65630  0.25739  1.0000
  C   C31       1.0  0.19237  0.62686  0.26038  1.0000
  C   C32       1.0  0.11530  0.56762  0.41757  1.0000
  C   C33       1.0  0.08421  0.55231  0.41442  1.0000
  C   C34       1.0  0.06862  0.53516  0.33863  1.0000
  C   C35       1.0  0.08560  0.53341  0.26718  1.0000
  C   C36       1.0  0.11669  0.54885  0.27001  1.0000
  H   H10       1.0  0.22189  0.67016  0.47920  1.0000
  H   H11       1.0  0.18291  0.62021  0.48368  1.0000
  H   H12       1.0  0.18580  0.61483  0.20222  1.0000
  H   H13       1.0  0.22449  0.66501  0.19600  1.0000
  H   H14       1.0  0.18900  0.57403  0.49133  1.0000
  H   H15       1.0  0.22848  0.56380  0.49241  1.0000
  H   H16       1.0  0.12578  0.57988  0.47321  1.0000
  H   H17       1.0  0.07299  0.55423  0.46796  1.0000
  H   H18       1.0  0.07550  0.52037  0.21254  1.0000
  H   H19       1.0  0.12812  0.54724  0.21674  1.0000
  H   H20       1.0  0.18108  0.56178  0.21130  1.0000
  H   H21       1.0  0.21939  0.54966  0.21200  1.0000
  N   N11       1.0  0.42802  0.58346  0.34898  1.0000
  C   C37       1.0  0.39675  0.56890  0.34335  1.0000
  C   C38       1.0  0.44361  0.56773  0.34533  1.0000
  C   C39       1.0  0.44243  0.61479  0.35208  1.0000
  C   C40       1.0  0.44258  0.62884  0.43318  1.0000
  C   C41       1.0  0.44883  0.65832  0.43366  1.0000
  C   C42       1.0  0.45550  0.67491  0.35316  1.0000
  C   C43       1.0  0.45627  0.66092  0.27249  1.0000
  C   C44       1.0  0.44971  0.63135  0.27184  1.0000
  C   C45       1.0  0.37986  0.56256  0.42262  1.0000
  C   C46       1.0  0.35040  0.55630  0.41952  1.0000
  C   C47       1.0  0.33691  0.55665  0.33723  1.0000
  C   C48       1.0  0.35358  0.56138  0.25752  1.0000
  C   C49       1.0  0.38302  0.56755  0.26053  1.0000
  C   C50       1.0  0.44224  0.54966  0.41771  1.0000
  C   C51       1.0  0.45755  0.53387  0.41451  1.0000
  C   C52       1.0  0.47467  0.53543  0.33867  1.0000
  C   C53       1.0  0.47641  0.55416  0.26724  1.0000
  C   C54       1.0  0.46097  0.56980  0.27012  1.0000
  H   H22       1.0  0.33966  0.55366  0.47929  1.0000
  H   H23       1.0  0.38962  0.56463  0.48382  1.0000
  H   H24       1.0  0.39506  0.57302  0.20240  1.0000
  H   H25       1.0  0.34488  0.56153  0.19612  1.0000
  H   H26       1.0  0.43582  0.61692  0.49149  1.0000
  H   H27       1.0  0.44604  0.66663  0.49268  1.0000
  H   H28       1.0  0.42999  0.54788  0.47338  1.0000
  H   H29       1.0  0.45563  0.52073  0.46804  1.0000
  H   H30       1.0  0.48944  0.55709  0.21257  1.0000
  H   H31       1.0  0.46258  0.58286  0.21686  1.0000
  H   H32       1.0  0.44810  0.62133  0.21146  1.0000
  H   H33       1.0  0.46021  0.67174  0.21227  1.0000
  N   N12       1.0  0.42638  0.84651  0.34891  1.0000
  C   C55       1.0  0.44096  0.82981  0.34337  1.0000
  C   C56       1.0  0.44211  0.87784  0.34526  1.0000
  C   C57       1.0  0.39505  0.82957  0.35191  1.0000
  C   C58       1.0  0.38099  0.81572  0.43304  1.0000
  C   C59       1.0  0.35153  0.79246  0.43340  1.0000
  C   C60       1.0  0.33494  0.78255  0.35288  1.0000
  C   C61       1.0  0.34896  0.79730  0.27221  1.0000
  C   C62       1.0  0.37854  0.82030  0.27160  1.0000
  C   C63       1.0  0.44727  0.81928  0.42272  1.0000
  C   C64       1.0  0.45355  0.79609  0.41964  1.0000
  C   C65       1.0  0.45325  0.78227  0.33735  1.0000
  C   C66       1.0  0.44854  0.79420  0.25760  1.0000
  C   C67       1.0  0.44236  0.81747  0.26053  1.0000
  C   C68       1.0  0.46016  0.89454  0.41766  1.0000
  C   C69       1.0  0.47594  0.92563  0.41445  1.0000
  C   C70       1.0  0.47439  0.94120  0.33859  1.0000
  C   C71       1.0  0.45568  0.92420  0.26714  1.0000
  C   C72       1.0  0.44004  0.89312  0.27003  1.0000
  H   H34       1.0  0.45616  0.78798  0.47943  1.0000
  H   H35       1.0  0.44516  0.82695  0.48389  1.0000
  H   H36       1.0  0.43691  0.82404  0.20238  1.0000
  H   H37       1.0  0.44843  0.78537  0.19622  1.0000
  H   H38       1.0  0.39289  0.82090  0.49140  1.0000
  H   H39       1.0  0.34315  0.78141  0.49248  1.0000
  H   H40       1.0  0.46193  0.88407  0.47334  1.0000
  H   H41       1.0  0.48907  0.93685  0.46800  1.0000
  H   H42       1.0  0.45275  0.93429  0.21246  1.0000
  H   H43       1.0  0.42700  0.88167  0.21676  1.0000
  H   H44       1.0  0.38859  0.82871  0.21125  1.0000
  H   H45       1.0  0.33817  0.79042  0.21197  1.0000
  N   N13       1.0  0.84810  0.42440  0.34696  1.0000
  C   C73       1.0  0.83139  0.39323  0.33831  1.0000
  C   C74       1.0  0.87938  0.44001  0.34723  1.0000
  C   C75       1.0  0.83145  0.43901  0.35280  1.0000
  C   C76       1.0  0.81555  0.43660  0.43195  1.0000
  C   C77       1.0  0.79285  0.44360  0.43158  1.0000
  C   C78       1.0  0.78554  0.45351  0.35230  1.0000
  C   C79       1.0  0.80237  0.45690  0.27402  1.0000
  C   C80       1.0  0.82504  0.44981  0.27422  1.0000
  C   C81       1.0  0.82250  0.37552  0.41615  1.0000
  C   C82       1.0  0.79917  0.34612  0.41264  1.0000
  C   C83       1.0  0.78371  0.33338  0.33151  1.0000
  C   C84       1.0  0.79432  0.35091  0.25271  1.0000
  C   C85       1.0  0.81752  0.38037  0.25610  1.0000
  C   C86       1.0  0.89513  0.45267  0.42716  1.0000
  C   C87       1.0  0.92624  0.46809  0.42778  1.0000
  C   C88       1.0  0.94276  0.47164  0.34845  1.0000
  C   C89       1.0  0.92654  0.45905  0.26837  1.0000
  C   C90       1.0  0.89544  0.44335  0.26780  1.0000
  H   H46       1.0  0.79225  0.33485  0.47209  1.0000
  H   H47       1.0  0.83135  0.38470  0.47716  1.0000
  H   H48       1.0  0.82292  0.39304  0.19931  1.0000
  H   H49       1.0  0.78451  0.34297  0.19182  1.0000
  H   H50       1.0  0.81884  0.42751  0.48852  1.0000
  H   H51       1.0  0.78026  0.43915  0.48829  1.0000
  H   H52       1.0  0.88394  0.45065  0.48553  1.0000
  H   H53       1.0  0.93665  0.47734  0.48703  1.0000
  H   H54       1.0  0.93727  0.46078  0.20919  1.0000
  H   H55       1.0  0.88448  0.43447  0.20887  1.0000
  H   H56       1.0  0.83529  0.45040  0.21508  1.0000
  H   H57       1.0  0.79732  0.46325  0.21465  1.0000
  N   N14       1.0  0.58547  0.42570  0.34670  1.0000
  C   C91       1.0  0.61664  0.44017  0.33804  1.0000
  C   C92       1.0  0.56985  0.44136  0.34705  1.0000
  C   C93       1.0  0.57088  0.39445  0.35273  1.0000
  C   C94       1.0  0.57333  0.38098  0.43189  1.0000
  C   C95       1.0  0.56636  0.35130  0.43161  1.0000
  C   C96       1.0  0.55643  0.33403  0.35241  1.0000
  C   C97       1.0  0.55303  0.34746  0.27408  1.0000
  C   C98       1.0  0.56008  0.37720  0.27421  1.0000
  C   C99       1.0  0.63436  0.44906  0.41586  1.0000
  C   C100      1.0  0.66375  0.45509  0.41237  1.0000
  C   C101      1.0  0.67649  0.45235  0.33126  1.0000
  C   C102      1.0  0.65895  0.44539  0.25248  1.0000
  C   C103      1.0  0.62950  0.43915  0.25586  1.0000
  C   C104      1.0  0.55722  0.44447  0.42702  1.0000
  C   C105      1.0  0.54178  0.46014  0.42766  1.0000
  C   C106      1.0  0.53821  0.47311  0.34835  1.0000
  C   C107      1.0  0.55076  0.46945  0.26823  1.0000
  C   C108      1.0  0.56648  0.45405  0.26762  1.0000
  H   H58       1.0  0.67501  0.45943  0.47183  1.0000
  H   H59       1.0  0.62518  0.44868  0.47691  1.0000
  H   H60       1.0  0.61681  0.43183  0.19908  1.0000
  H   H61       1.0  0.66689  0.44351  0.19161  1.0000
  H   H62       1.0  0.58242  0.39338  0.48841  1.0000
  H   H63       1.0  0.57084  0.34319  0.48833  1.0000
  H   H64       1.0  0.55927  0.43532  0.48539  1.0000
  H   H65       1.0  0.53257  0.46133  0.48697  1.0000
  H   H66       1.0  0.54902  0.47843  0.20906  1.0000
  H   H67       1.0  0.57533  0.45197  0.20867  1.0000
  H   H68       1.0  0.55947  0.38683  0.21504  1.0000
  H   H69       1.0  0.54667  0.33604  0.21474  1.0000
  N   N15       1.0  0.58419  0.16172  0.34680  1.0000
  C   C109      1.0  0.56974  0.17844  0.33811  1.0000
  C   C110      1.0  0.56852  0.13045  0.34710  1.0000
  C   C111      1.0  0.61545  0.17837  0.35275  1.0000
  C   C112      1.0  0.62892  0.19427  0.43192  1.0000
  C   C113      1.0  0.65860  0.21698  0.43159  1.0000
  C   C114      1.0  0.67587  0.22428  0.35240  1.0000
  C   C115      1.0  0.66243  0.20746  0.27408  1.0000
  C   C116      1.0  0.63270  0.18475  0.27425  1.0000
  C   C117      1.0  0.56084  0.18726  0.41590  1.0000
  C   C118      1.0  0.55483  0.21064  0.41244  1.0000
  C   C119      1.0  0.55761  0.22614  0.33134  1.0000
  C   C120      1.0  0.56456  0.21556  0.25255  1.0000
  C   C121      1.0  0.57079  0.19234  0.25594  1.0000
  C   C122      1.0  0.56541  0.11469  0.42704  1.0000
  C   C123      1.0  0.54973  0.08358  0.42765  1.0000
  C   C124      1.0  0.53675  0.06706  0.34833  1.0000
  C   C125      1.0  0.54040  0.08328  0.26825  1.0000
  C   C126      1.0  0.55581  0.11439  0.26766  1.0000
  H   H70       1.0  0.55049  0.21756  0.47187  1.0000
  H   H71       1.0  0.56120  0.17844  0.47695  1.0000
  H   H72       1.0  0.57812  0.18697  0.19916  1.0000
  H   H73       1.0  0.56649  0.22540  0.19170  1.0000
  H   H74       1.0  0.61650  0.19101  0.48838  1.0000
  H   H75       1.0  0.66672  0.22957  0.48828  1.0000
  H   H76       1.0  0.57458  0.12589  0.48541  1.0000
  H   H77       1.0  0.54854  0.07318  0.48693  1.0000
  H   H78       1.0  0.53141  0.07256  0.20906  1.0000
  H   H79       1.0  0.55790  0.12534  0.20873  1.0000
  H   H80       1.0  0.62303  0.17452  0.21508  1.0000
  H   H81       1.0  0.67386  0.21248  0.21477  1.0000
  N   N16       1.0  0.02227  0.50655  0.41393  1.0000
  C   C127      1.0  0.99246  0.49106  0.42268  1.0000
  H   H82       1.0  0.98370  0.48158  0.48325  1.0000
  N   N17       1.0  0.50331  0.51771  0.41391  1.0000
  C   C128      1.0  0.51881  0.50339  0.42261  1.0000
  H   H83       1.0  0.52831  0.50413  0.48317  1.0000
  N   N18       1.0  0.49212  0.98756  0.41386  1.0000
  C   C129      1.0  0.50644  0.01738  0.42256  1.0000
  H   H84       1.0  0.50575  0.02613  0.48317  1.0000
  C   C130      1.0  0.25342  0.55207  0.35041  1.0000
  C   C131      1.0  0.30841  0.55427  0.33697  1.0000
  N   N19       1.0  0.28924  0.54047  0.40584  1.0000
  C   C132      1.0  0.26242  0.53846  0.41625  1.0000
  C   C133      1.0  0.24523  0.52237  0.48873  1.0000
  O   O7        1.0  0.25727  0.52458  0.56102  1.0000
  O   O8        1.0  0.22132  0.49940  0.47873  1.0000
  H   H85       1.0  0.21128  0.49362  0.42773  1.0000
  C   C134      1.0  0.45776  0.70333  0.35070  1.0000
  C   C135      1.0  0.45561  0.75614  0.33713  1.0000
  N   N20       1.0  0.46938  0.75076  0.40605  1.0000
  C   C136      1.0  0.47136  0.72593  0.41656  1.0000
  C   C137      1.0  0.48745  0.72479  0.48900  1.0000
  O   O9        1.0  0.48503  0.73458  0.56111  1.0000
  O   O10       1.0  0.51060  0.72423  0.47903  1.0000
  H   H86       1.0  0.51645  0.72003  0.42806  1.0000
  C   C138      1.0  0.30652  0.75641  0.35038  1.0000
  C   C139      1.0  0.25371  0.70144  0.33687  1.0000
  N   N21       1.0  0.25908  0.72062  0.40574  1.0000
  C   C140      1.0  0.28390  0.74742  0.41618  1.0000
  C   C141      1.0  0.28498  0.76463  0.48862  1.0000
  O   O11       1.0  0.27546  0.75258  0.56107  1.0000
  O   O12       1.0  0.28590  0.78852  0.47836  1.0000
  H   H87       1.0  0.29003  0.79847  0.42720  1.0000
  C   C142      1.0  0.75981  0.45641  0.34799  1.0000
  C   C143      1.0  0.70502  0.45461  0.33185  1.0000
  N   N22       1.0  0.72344  0.46713  0.40326  1.0000
  C   C144      1.0  0.75007  0.46887  0.41530  1.0000
  C   C145      1.0  0.76628  0.48330  0.49121  1.0000
  O   O13       1.0  0.75322  0.48006  0.56216  1.0000
  O   O14       1.0  0.79067  0.50599  0.48635  1.0000
  H   H88       1.0  0.80152  0.51255  0.43701  1.0000
  C   C146      1.0  0.55362  0.30545  0.34816  1.0000
  C   C147      1.0  0.55539  0.25244  0.33197  1.0000
  N   N23       1.0  0.54289  0.25834  0.40344  1.0000
  C   C148      1.0  0.54118  0.28325  0.41550  1.0000
  C   C149      1.0  0.52676  0.28502  0.49149  1.0000
  O   O15       1.0  0.53042  0.27557  0.56255  1.0000
  O   O16       1.0  0.50405  0.28668  0.48657  1.0000
  H   H89       1.0  0.49738  0.29078  0.43712  1.0000
  C   C150      1.0  0.70448  0.25002  0.34812  1.0000
  C   C151      1.0  0.75746  0.30483  0.33203  1.0000
  N   N24       1.0  0.75155  0.28643  0.40349  1.0000
  C   C152      1.0  0.72666  0.25980  0.41552  1.0000
  C   C153      1.0  0.72488  0.24360  0.49147  1.0000
  O   O17       1.0  0.73466  0.25667  0.56242  1.0000
  O   O18       1.0  0.72320  0.21922  0.48668  1.0000
  H   H90       1.0  0.71895  0.20837  0.43735  1.0000
