data_image0
_chemical_formula_structural       C3NC3NC5NC5NC20H18N4C3NC3NC5NC5NC20H18N4C3NC3NC5NC5NC20H18N4C3NC3NC5NC5NC20H18N4C3NC3NC5NC5NC20H18N4C3NC3NC5NC5NC20H18N4C3H2CHC3H2CHC3H2CHC3H2CHC3H2CHC2H2CHC3H2CHC3H2CHC3H2CHC3H2CHC3H2CHC3H2CHC8H8C8H8C8H8C8H8C8H8C8H8C3HNO2CHC3HNO2CHC3HNO2CHC3HNO2CHC3HNO2CHC4HNO2CHC3HNO2CHC3HNO2CHC3HNO2CHC3HNO2CHC3HNO2CHC3HNO2CH
_chemical_formula_sum              "C360 N60 H216 O24"
_cell_length_a       69.3558
_cell_length_b       69.3557
_cell_length_c       14.8784
_cell_angle_alpha    90.0046
_cell_angle_beta     89.9098
_cell_angle_gamma    120

_space_group_name_H-M_alt    "P 1"
_space_group_IT_number       1

loop_
  _space_group_symop_operation_xyz
  'x, y, z'

loop_
  _atom_site_type_symbol
  _atom_site_label
  _atom_site_symmetry_multiplicity
  _atom_site_fract_x
  _atom_site_fract_y
  _atom_site_fract_z
  _atom_site_occupancy
  C   C1        1.0  0.21319  0.37801  0.32433  1.0000
  C   C2        1.0  0.23314  0.37799  0.32446  1.0000
  C   C3        1.0  0.25057  0.40005  0.32338  1.0000
  N   N1        1.0  0.24045  0.41252  0.32260  1.0000
  C   C4        1.0  0.21785  0.40007  0.32317  1.0000
  C   C5        1.0  0.20153  0.40687  0.32245  1.0000
  C   C6        1.0  0.20657  0.42945  0.32102  1.0000
  N   N2        1.0  0.22684  0.44810  0.32038  1.0000
  C   C7        1.0  0.22537  0.46683  0.31903  1.0000
  C   C8        1.0  0.20267  0.45978  0.31864  1.0000
  C   C9        1.0  0.19112  0.43680  0.32027  1.0000
  C   C10       1.0  0.24299  0.48929  0.31825  1.0000
  C   C11       1.0  0.26603  0.49602  0.32014  1.0000
  N   N3        1.0  0.27601  0.48348  0.32139  1.0000
  C   C12       1.0  0.29854  0.49599  0.32374  1.0000
  C   C13       1.0  0.30327  0.51809  0.32366  1.0000
  C   C14       1.0  0.28341  0.51811  0.32175  1.0000
  C   C15       1.0  0.31484  0.48924  0.32549  1.0000
  C   C16       1.0  0.30994  0.46677  0.32473  1.0000
  N   N4        1.0  0.28971  0.44806  0.32401  1.0000
  C   C17       1.0  0.29127  0.42938  0.32376  1.0000
  C   C18       1.0  0.31407  0.43668  0.32403  1.0000
  C   C19       1.0  0.32555  0.45967  0.32512  1.0000
  C   C20       1.0  0.27369  0.40682  0.32354  1.0000
  C   C21       1.0  0.28007  0.39009  0.32387  1.0000
  C   C22       1.0  0.29956  0.36208  0.32202  1.0000
  C   C23       1.0  0.29279  0.36779  0.24156  1.0000
  C   C24       1.0  0.28327  0.38162  0.24224  1.0000
  C   C25       1.0  0.33766  0.50638  0.32860  1.0000
  C   C26       1.0  0.38121  0.54445  0.33261  1.0000
  C   C27       1.0  0.37158  0.53364  0.25046  1.0000
  C   C28       1.0  0.35002  0.51487  0.24845  1.0000
  C   C29       1.0  0.23733  0.50645  0.31703  1.0000
  C   C30       1.0  0.23828  0.51754  0.23605  1.0000
  C   C31       1.0  0.23541  0.53626  0.23658  1.0000
  C   C32       1.0  0.23155  0.54439  0.31766  1.0000
  C   C33       1.0  0.17840  0.39018  0.32409  1.0000
  C   C34       1.0  0.16573  0.38366  0.24409  1.0000
  C   C35       1.0  0.13094  0.36225  0.32976  1.0000
  C   C36       1.0  0.14237  0.36987  0.24686  1.0000
  H   H1        1.0  0.13373  0.36618  0.18783  1.0000
  H   H2        1.0  0.17335  0.38966  0.18334  1.0000
  H   H3        1.0  0.19783  0.36399  0.32491  1.0000
  H   H4        1.0  0.23446  0.36396  0.32540  1.0000
  H   H5        1.0  0.24847  0.42852  0.32159  1.0000
  H   H6        1.0  0.26800  0.46748  0.32049  1.0000
  H   H7        1.0  0.17414  0.42725  0.32066  1.0000
  H   H8        1.0  0.19546  0.46953  0.31777  1.0000
  H   H9        1.0  0.24183  0.51253  0.17662  1.0000
  H   H10       1.0  0.23673  0.54429  0.17718  1.0000
  H   H11       1.0  0.28220  0.53221  0.32178  1.0000
  H   H12       1.0  0.31858  0.53218  0.32482  1.0000
  H   H13       1.0  0.32145  0.42710  0.32388  1.0000
  H   H14       1.0  0.34251  0.46938  0.32565  1.0000
  H   H15       1.0  0.34312  0.50790  0.18775  1.0000
  H   H16       1.0  0.37980  0.53976  0.19102  1.0000
  H   H17       1.0  0.27944  0.38615  0.18233  1.0000
  H   H18       1.0  0.29541  0.36244  0.18105  1.0000
  N   N5        1.0  0.40088  0.56302  0.33972  1.0000
  N   N6        1.0  0.23018  0.56288  0.31260  1.0000
  N   N7        1.0  0.10875  0.35041  0.33851  1.0000
  N   N8        1.0  0.30985  0.35011  0.31501  1.0000
  C   C37       1.0  0.69285  0.83722  0.32544  1.0000
  C   C38       1.0  0.69287  0.85718  0.32550  1.0000
  C   C39       1.0  0.67082  0.85256  0.32441  1.0000
  N   N9        1.0  0.65834  0.82997  0.32368  1.0000
  C   C40       1.0  0.67079  0.81981  0.32431  1.0000
  C   C41       1.0  0.66398  0.79669  0.32364  1.0000
  C   C42       1.0  0.64141  0.77916  0.32224  1.0000
  N   N10       1.0  0.62276  0.78077  0.32158  1.0000
  C   C43       1.0  0.60403  0.76057  0.32028  1.0000
  C   C44       1.0  0.61108  0.74492  0.31991  1.0000
  C   C45       1.0  0.63406  0.75635  0.32153  1.0000
  C   C46       1.0  0.58157  0.75573  0.31951  1.0000
  C   C47       1.0  0.57484  0.77204  0.32130  1.0000
  N   N11       1.0  0.58738  0.79457  0.32249  1.0000
  C   C48       1.0  0.57487  0.80458  0.32479  1.0000
  C   C49       1.0  0.55277  0.78721  0.32473  1.0000
  C   C50       1.0  0.55275  0.76734  0.32289  1.0000
  C   C51       1.0  0.58162  0.82763  0.32642  1.0000
  C   C52       1.0  0.60410  0.84521  0.32565  1.0000
  N   N12       1.0  0.62280  0.84368  0.32501  1.0000
  C   C53       1.0  0.64148  0.86392  0.32470  1.0000
  C   C54       1.0  0.63418  0.87942  0.32485  1.0000
  C   C55       1.0  0.61120  0.86792  0.32591  1.0000
  C   C56       1.0  0.66404  0.86890  0.32448  1.0000
  C   C57       1.0  0.68077  0.89201  0.32471  1.0000
  C   C58       1.0  0.70880  0.93951  0.32258  1.0000
  C   C59       1.0  0.70315  0.92700  0.24221  1.0000
  C   C60       1.0  0.68932  0.90364  0.24301  1.0000
  C   C61       1.0  0.56448  0.83332  0.32937  1.0000
  C   C62       1.0  0.52641  0.83882  0.33314  1.0000
  C   C63       1.0  0.53728  0.83996  0.25104  1.0000
  C   C64       1.0  0.55605  0.83717  0.24915  1.0000
  C   C65       1.0  0.56440  0.73291  0.31828  1.0000
  C   C66       1.0  0.55337  0.72277  0.23730  1.0000
  C   C67       1.0  0.53465  0.70118  0.23783  1.0000
  C   C68       1.0  0.52647  0.68920  0.31890  1.0000
  C   C69       1.0  0.68067  0.79025  0.32531  1.0000
  C   C70       1.0  0.68726  0.78410  0.24530  1.0000
  C   C71       1.0  0.70858  0.77070  0.33099  1.0000
  C   C72       1.0  0.70100  0.77449  0.24810  1.0000
  H   H19       1.0  0.70475  0.76957  0.18905  1.0000
  H   H20       1.0  0.68128  0.78570  0.18455  1.0000
  H   H21       1.0  0.70687  0.83587  0.32606  1.0000
  H   H22       1.0  0.70691  0.87253  0.32643  1.0000
  H   H23       1.0  0.64234  0.82198  0.32266  1.0000
  H   H24       1.0  0.60338  0.80256  0.32163  1.0000
  H   H25       1.0  0.64361  0.74893  0.32198  1.0000
  H   H26       1.0  0.60133  0.72797  0.31913  1.0000
  H   H27       1.0  0.55841  0.73133  0.17788  1.0000
  H   H28       1.0  0.52665  0.69447  0.17843  1.0000
  H   H29       1.0  0.53865  0.75204  0.32299  1.0000
  H   H30       1.0  0.53868  0.78843  0.32586  1.0000
  H   H31       1.0  0.64377  0.89639  0.32454  1.0000
  H   H32       1.0  0.60148  0.87516  0.32632  1.0000
  H   H33       1.0  0.56306  0.83721  0.18848  1.0000
  H   H34       1.0  0.53120  0.84204  0.19155  1.0000
  H   H35       1.0  0.68483  0.89525  0.18315  1.0000
  H   H36       1.0  0.70857  0.93494  0.18166  1.0000
  N   N13       1.0  0.50782  0.83989  0.34012  1.0000
  N   N14       1.0  0.50798  0.66933  0.31384  1.0000
  N   N15       1.0  0.72042  0.76035  0.33973  1.0000
  N   N16       1.0  0.72079  0.96176  0.31544  1.0000
  C   C73       1.0  0.23364  0.85766  0.32342  1.0000
  C   C74       1.0  0.21368  0.83771  0.32342  1.0000
  C   C75       1.0  0.21830  0.82028  0.32235  1.0000
  N   N17       1.0  0.24090  0.83040  0.32166  1.0000
  C   C76       1.0  0.25105  0.85300  0.32232  1.0000
  C   C77       1.0  0.27417  0.86932  0.32172  1.0000
  C   C78       1.0  0.29171  0.86428  0.32040  1.0000
  N   N18       1.0  0.29009  0.84402  0.31973  1.0000
  C   C79       1.0  0.31029  0.84549  0.31856  1.0000
  C   C80       1.0  0.32594  0.86818  0.31831  1.0000
  C   C81       1.0  0.31451  0.87974  0.31985  1.0000
  C   C82       1.0  0.31514  0.82787  0.31779  1.0000
  C   C83       1.0  0.29882  0.80483  0.31948  1.0000
  N   N19       1.0  0.27629  0.79484  0.32059  1.0000
  C   C84       1.0  0.26628  0.77231  0.32282  1.0000
  C   C85       1.0  0.28365  0.76758  0.32281  1.0000
  C   C86       1.0  0.30353  0.78744  0.32106  1.0000
  C   C87       1.0  0.24323  0.75601  0.32444  1.0000
  C   C88       1.0  0.22565  0.76091  0.32364  1.0000
  N   N20       1.0  0.22718  0.78114  0.32296  1.0000
  C   C89       1.0  0.20694  0.77959  0.32264  1.0000
  C   C90       1.0  0.19144  0.75679  0.32282  1.0000
  C   C91       1.0  0.20294  0.74531  0.32388  1.0000
  C   C92       1.0  0.20196  0.79717  0.32243  1.0000
  C   C93       1.0  0.17885  0.79079  0.32267  1.0000
  C   C94       1.0  0.13135  0.77129  0.32081  1.0000
  C   C95       1.0  0.14388  0.77811  0.24036  1.0000
  C   C96       1.0  0.16724  0.78766  0.24104  1.0000
  C   C97       1.0  0.23754  0.73319  0.32747  1.0000
  C   C98       1.0  0.23203  0.68962  0.33146  1.0000
  C   C99       1.0  0.23095  0.69933  0.24930  1.0000
  C   C100      1.0  0.23373  0.72089  0.24730  1.0000
  C   C101      1.0  0.33796  0.83353  0.31678  1.0000
  C   C102      1.0  0.34821  0.83265  0.23594  1.0000
  C   C103      1.0  0.36980  0.83554  0.23670  1.0000
  C   C104      1.0  0.38167  0.83929  0.31792  1.0000
  C   C105      1.0  0.28061  0.89245  0.32348  1.0000
  C   C106      1.0  0.28686  0.90521  0.24354  1.0000
  C   C107      1.0  0.30015  0.93991  0.32940  1.0000
  C   C108      1.0  0.29645  0.92856  0.24645  1.0000
  H   H37       1.0  0.30143  0.93726  0.18746  1.0000
  H   H38       1.0  0.28530  0.89765  0.18276  1.0000
  H   H39       1.0  0.23499  0.87303  0.32404  1.0000
  H   H40       1.0  0.19832  0.83640  0.32435  1.0000
  H   H41       1.0  0.24888  0.82239  0.32066  1.0000
  H   H42       1.0  0.26831  0.80285  0.31975  1.0000
  H   H43       1.0  0.32193  0.89671  0.32033  1.0000
  H   H44       1.0  0.34290  0.87539  0.31760  1.0000
  H   H45       1.0  0.33974  0.82920  0.17638  1.0000
  H   H46       1.0  0.37659  0.83427  0.17737  1.0000
  H   H47       1.0  0.31883  0.78865  0.32122  1.0000
  H   H48       1.0  0.28243  0.75227  0.32394  1.0000
  H   H49       1.0  0.17447  0.74941  0.32253  1.0000
  H   H50       1.0  0.19570  0.72835  0.32436  1.0000
  H   H51       1.0  0.23376  0.72785  0.18659  1.0000
  H   H52       1.0  0.22892  0.69116  0.18985  1.0000
  H   H53       1.0  0.17564  0.79153  0.18113  1.0000
  H   H54       1.0  0.13596  0.77556  0.17984  1.0000
  N   N21       1.0  0.23093  0.66995  0.33856  1.0000
  N   N22       1.0  0.40154  0.84067  0.31308  1.0000
  N   N23       1.0  0.31048  0.96209  0.33828  1.0000
  N   N24       1.0  0.10909  0.76101  0.31382  1.0000
  C   C109      1.0  0.87993  0.67058  0.32531  1.0000
  C   C110      1.0  0.85998  0.67060  0.32551  1.0000
  C   C111      1.0  0.84254  0.64854  0.32460  1.0000
  N   N25       1.0  0.85266  0.63607  0.32383  1.0000
  C   C112      1.0  0.87526  0.64851  0.32425  1.0000
  C   C113      1.0  0.89158  0.64171  0.32346  1.0000
  C   C114      1.0  0.88654  0.61913  0.32219  1.0000
  N   N26       1.0  0.86628  0.60049  0.32176  1.0000
  C   C115      1.0  0.86774  0.58175  0.32053  1.0000
  C   C116      1.0  0.89044  0.58880  0.31998  1.0000
  C   C117      1.0  0.90200  0.61178  0.32141  1.0000
  C   C118      1.0  0.85013  0.55929  0.31996  1.0000
  C   C119      1.0  0.82709  0.55257  0.32192  1.0000
  N   N27       1.0  0.81710  0.56510  0.32315  1.0000
  C   C120      1.0  0.79457  0.55259  0.32557  1.0000
  C   C121      1.0  0.78984  0.53049  0.32559  1.0000
  C   C122      1.0  0.80970  0.53047  0.32363  1.0000
  C   C123      1.0  0.77827  0.55935  0.32730  1.0000
  C   C124      1.0  0.78317  0.58182  0.32645  1.0000
  N   N28       1.0  0.80340  0.60053  0.32562  1.0000
  C   C125      1.0  0.80185  0.61921  0.32526  1.0000
  C   C126      1.0  0.77905  0.61191  0.32559  1.0000
  C   C127      1.0  0.76757  0.58892  0.32677  1.0000
  C   C128      1.0  0.81943  0.64177  0.32488  1.0000
  C   C129      1.0  0.81305  0.65850  0.32507  1.0000
  C   C130      1.0  0.79360  0.68654  0.32303  1.0000
  C   C131      1.0  0.80045  0.68086  0.24264  1.0000
  C   C132      1.0  0.80999  0.66704  0.24341  1.0000
  C   C133      1.0  0.75545  0.54221  0.33046  1.0000
  C   C134      1.0  0.71189  0.50414  0.33453  1.0000
  C   C135      1.0  0.72159  0.51499  0.25237  1.0000
  C   C136      1.0  0.74316  0.53374  0.25032  1.0000
  C   C137      1.0  0.85578  0.54213  0.31873  1.0000
  C   C138      1.0  0.85489  0.53105  0.23779  1.0000
  C   C139      1.0  0.85775  0.51233  0.23836  1.0000
  C   C140      1.0  0.86154  0.50418  0.31946  1.0000
  C   C141      1.0  0.91471  0.65840  0.32487  1.0000
  C   C142      1.0  0.92742  0.66491  0.24475  1.0000
  C   C143      1.0  0.96218  0.68628  0.33006  1.0000
  C   C144      1.0  0.95078  0.67867  0.24728  1.0000
  H   H55       1.0  0.95942  0.68237  0.18815  1.0000
  H   H56       1.0  0.91981  0.65891  0.18408  1.0000
  H   H57       1.0  0.89529  0.68460  0.32576  1.0000
  H   H58       1.0  0.85866  0.68463  0.32643  1.0000
  H   H59       1.0  0.84465  0.62006  0.32287  1.0000
  H   H60       1.0  0.82511  0.58110  0.32222  1.0000
  H   H61       1.0  0.91897  0.62133  0.32166  1.0000
  H   H62       1.0  0.89765  0.57905  0.31915  1.0000
  H   H63       1.0  0.85140  0.53609  0.17834  1.0000
  H   H64       1.0  0.85649  0.50432  0.17897  1.0000
  H   H65       1.0  0.81090  0.51638  0.32375  1.0000
  H   H66       1.0  0.77453  0.51640  0.32684  1.0000
  H   H67       1.0  0.77167  0.62149  0.32532  1.0000
  H   H68       1.0  0.75061  0.57921  0.32737  1.0000
  H   H69       1.0  0.75011  0.54072  0.18960  1.0000
  H   H70       1.0  0.71343  0.50886  0.19293  1.0000
  H   H71       1.0  0.81386  0.66251  0.18353  1.0000
  H   H72       1.0  0.79792  0.68625  0.18210  1.0000
  N   N29       1.0  0.69222  0.48557  0.34167  1.0000
  N   N30       1.0  0.86292  0.48570  0.31444  1.0000
  N   N31       1.0  0.98437  0.69814  0.33858  1.0000
  N   N32       1.0  0.78330  0.69851  0.31592  1.0000
  C   C145      1.0  0.40027  0.21138  0.32590  1.0000
  C   C146      1.0  0.40026  0.19141  0.32598  1.0000
  C   C147      1.0  0.42231  0.19603  0.32515  1.0000
  N   N33       1.0  0.43479  0.21863  0.32456  1.0000
  C   C148      1.0  0.42234  0.22878  0.32501  1.0000
  C   C149      1.0  0.42914  0.25190  0.32442  1.0000
  C   C150      1.0  0.45172  0.26944  0.32327  1.0000
  N   N34       1.0  0.47037  0.26782  0.32281  1.0000
  C   C151      1.0  0.48911  0.28802  0.32169  1.0000
  C   C152      1.0  0.48206  0.30367  0.32125  1.0000
  C   C153      1.0  0.45907  0.29225  0.32264  1.0000
  C   C154      1.0  0.51157  0.29286  0.32109  1.0000
  C   C155      1.0  0.51829  0.27655  0.32299  1.0000
  N   N35       1.0  0.50575  0.25402  0.32415  1.0000
  C   C156      1.0  0.51826  0.24400  0.32648  1.0000
  C   C157      1.0  0.54036  0.26137  0.32653  1.0000
  C   C158      1.0  0.54038  0.28125  0.32469  1.0000
  C   C159      1.0  0.51151  0.22096  0.32807  1.0000
  C   C160      1.0  0.48903  0.20338  0.32711  1.0000
  N   N36       1.0  0.47033  0.20490  0.32626  1.0000
  C   C161      1.0  0.45165  0.18467  0.32577  1.0000
  C   C162      1.0  0.45894  0.16917  0.32602  1.0000
  C   C163      1.0  0.48193  0.18067  0.32734  1.0000
  C   C164      1.0  0.42908  0.17969  0.32532  1.0000
  C   C165      1.0  0.41235  0.15658  0.32533  1.0000
  C   C166      1.0  0.38434  0.10908  0.32281  1.0000
  C   C167      1.0  0.39011  0.12166  0.24253  1.0000
  C   C168      1.0  0.40394  0.14502  0.24353  1.0000
  C   C169      1.0  0.52864  0.21527  0.33112  1.0000
  C   C170      1.0  0.56672  0.20979  0.33493  1.0000
  C   C171      1.0  0.55590  0.20865  0.25284  1.0000
  C   C172      1.0  0.53713  0.21143  0.25091  1.0000
  C   C173      1.0  0.52873  0.31568  0.31995  1.0000
  C   C174      1.0  0.53985  0.32587  0.23901  1.0000
  C   C175      1.0  0.55856  0.34746  0.23960  1.0000
  C   C176      1.0  0.56666  0.35940  0.32070  1.0000
  C   C177      1.0  0.41245  0.25834  0.32585  1.0000
  C   C178      1.0  0.40601  0.26456  0.24575  1.0000
  C   C179      1.0  0.38453  0.27788  0.33110  1.0000
  C   C180      1.0  0.39223  0.27413  0.24831  1.0000
  H   H73       1.0  0.38860  0.27912  0.18923  1.0000
  H   H74       1.0  0.41207  0.26298  0.18508  1.0000
  H   H75       1.0  0.38625  0.21272  0.32634  1.0000
  H   H76       1.0  0.38622  0.17606  0.32674  1.0000
  H   H77       1.0  0.45079  0.22661  0.32374  1.0000
  H   H78       1.0  0.48975  0.24603  0.32321  1.0000
  H   H79       1.0  0.44952  0.29967  0.32294  1.0000
  H   H80       1.0  0.49181  0.32063  0.32050  1.0000
  H   H81       1.0  0.53486  0.31735  0.17955  1.0000
  H   H82       1.0  0.56662  0.35421  0.18021  1.0000
  H   H83       1.0  0.55448  0.29656  0.32478  1.0000
  H   H84       1.0  0.55445  0.26016  0.32768  1.0000
  H   H85       1.0  0.44936  0.15220  0.32569  1.0000
  H   H86       1.0  0.49164  0.17343  0.32789  1.0000
  H   H87       1.0  0.53017  0.21140  0.19025  1.0000
  H   H88       1.0  0.56203  0.20657  0.19335  1.0000
  H   H89       1.0  0.40852  0.15345  0.18374  1.0000
  H   H90       1.0  0.38480  0.11377  0.18189  1.0000
  N   N37       1.0  0.58529  0.20869  0.34193  1.0000
  N   N38       1.0  0.58515  0.37927  0.31569  1.0000
  N   N39       1.0  0.37268  0.28823  0.33968  1.0000
  N   N40       1.0  0.37237  0.08683  0.31549  1.0000
  C   C181      1.0  0.85949  0.19093  0.32491  1.0000
  C   C182      1.0  0.87945  0.21088  0.32494  1.0000
  C   C183      1.0  0.87483  0.22831  0.32394  1.0000
  N   N41       1.0  0.85223  0.21819  0.32328  1.0000
  C   C184      1.0  0.84208  0.19559  0.32389  1.0000
  C   C185      1.0  0.81896  0.17927  0.32330  1.0000
  C   C186      1.0  0.80142  0.18431  0.32206  1.0000
  N   N42       1.0  0.80304  0.20457  0.32149  1.0000
  C   C187      1.0  0.78284  0.20310  0.32036  1.0000
  C   C188      1.0  0.76719  0.18040  0.32002  1.0000
  C   C189      1.0  0.77862  0.16885  0.32147  1.0000
  C   C190      1.0  0.77799  0.22072  0.31971  1.0000
  C   C191      1.0  0.79431  0.24376  0.32145  1.0000
  N   N43       1.0  0.81683  0.25375  0.32249  1.0000
  C   C192      1.0  0.82685  0.27627  0.32479  1.0000
  C   C193      1.0  0.80948  0.28100  0.32488  1.0000
  C   C194      1.0  0.78960  0.26114  0.32313  1.0000
  C   C195      1.0  0.84989  0.29257  0.32632  1.0000
  C   C196      1.0  0.86748  0.28768  0.32542  1.0000
  N   N44       1.0  0.86595  0.26744  0.32472  1.0000
  C   C197      1.0  0.88618  0.26900  0.32431  1.0000
  C   C198      1.0  0.90168  0.29180  0.32446  1.0000
  C   C199      1.0  0.89018  0.30328  0.32561  1.0000
  C   C200      1.0  0.89117  0.25142  0.32401  1.0000
  C   C201      1.0  0.91428  0.25781  0.32419  1.0000
  C   C202      1.0  0.96178  0.27727  0.32202  1.0000
  C   C203      1.0  0.94928  0.27045  0.24166  1.0000
  C   C204      1.0  0.92592  0.26092  0.24249  1.0000
  C   C205      1.0  0.85558  0.31539  0.32937  1.0000
  C   C206      1.0  0.86108  0.35896  0.33339  1.0000
  C   C207      1.0  0.86222  0.34928  0.25122  1.0000
  C   C208      1.0  0.85943  0.32772  0.24919  1.0000
  C   C209      1.0  0.75517  0.21506  0.31873  1.0000
  C   C210      1.0  0.74500  0.21597  0.23787  1.0000
  C   C211      1.0  0.72341  0.21310  0.23863  1.0000
  C   C212      1.0  0.71146  0.20929  0.31984  1.0000
  C   C213      1.0  0.81253  0.15614  0.32491  1.0000
  C   C214      1.0  0.80638  0.14345  0.24489  1.0000
  C   C215      1.0  0.79298  0.10868  0.33051  1.0000
  C   C216      1.0  0.79677  0.12009  0.24765  1.0000
  H   H91       1.0  0.79185  0.11144  0.18860  1.0000
  H   H92       1.0  0.80797  0.15105  0.18416  1.0000
  H   H93       1.0  0.85814  0.17556  0.32549  1.0000
  H   H94       1.0  0.89481  0.21219  0.32580  1.0000
  H   H95       1.0  0.84425  0.22620  0.32233  1.0000
  H   H96       1.0  0.82482  0.24574  0.32155  1.0000
  H   H97       1.0  0.77120  0.15188  0.32190  1.0000
  H   H98       1.0  0.75024  0.17320  0.31936  1.0000
  H   H99       1.0  0.75353  0.21950  0.17835  1.0000
  H   H100      1.0  0.71668  0.21441  0.17932  1.0000
  H   H101      1.0  0.77430  0.25994  0.32335  1.0000
  H   H102      1.0  0.81069  0.29631  0.32606  1.0000
  H   H103      1.0  0.91865  0.29918  0.32407  1.0000
  H   H104      1.0  0.89742  0.32024  0.32604  1.0000
  H   H105      1.0  0.85946  0.32079  0.18849  1.0000
  H   H106      1.0  0.86430  0.35748  0.19176  1.0000
  H   H107      1.0  0.91754  0.25705  0.18264  1.0000
  H   H108      1.0  0.95723  0.27300  0.18109  1.0000
  N   N45       1.0  0.86216  0.37862  0.34050  1.0000
  N   N46       1.0  0.69159  0.20791  0.31501  1.0000
  N   N47       1.0  0.78263  0.08649  0.33924  1.0000
  N   N48       1.0  0.98403  0.28755  0.31485  1.0000
  C   C217      1.0  0.22574  0.63428  0.31001  1.0000
  C   C218      1.0  0.22945  0.62228  0.24163  1.0000
  C   C219      1.0  0.23008  0.60274  0.26081  1.0000
  H   H109      1.0  0.23181  0.62770  0.17632  1.0000
  H   H110      1.0  0.23285  0.59474  0.20891  1.0000
  C   C220      1.0  0.22486  0.65327  0.28545  1.0000
  H   H111      1.0  0.21963  0.65400  0.22402  1.0000
  C   C221      1.0  0.43658  0.59350  0.31120  1.0000
  C   C222      1.0  0.44862  0.60921  0.24284  1.0000
  C   C223      1.0  0.46815  0.62938  0.26203  1.0000
  H   H112      1.0  0.44325  0.60615  0.17753  1.0000
  H   H113      1.0  0.47619  0.64015  0.21013  1.0000
  C   C224      1.0  0.41761  0.57364  0.28662  1.0000
  H   H114      1.0  0.41691  0.56768  0.22519  1.0000
  C   C225      1.0  0.47738  0.84511  0.31131  1.0000
  C   C226      1.0  0.46176  0.84147  0.24276  1.0000
  C   C227      1.0  0.44156  0.84082  0.26174  1.0000
  H   H115      1.0  0.46491  0.83919  0.17748  1.0000
  H   H116      1.0  0.43086  0.83810  0.20971  1.0000
  C   C228      1.0  0.49728  0.84603  0.28695  1.0000
  H   H117      1.0  0.50334  0.85136  0.22563  1.0000
  C   C229      1.0  0.86737  0.41430  0.31194  1.0000
  C   C230      1.0  0.86372  0.42633  0.24355  1.0000
  C   C231      1.0  0.86308  0.44586  0.26271  1.0000
  H   H118      1.0  0.86143  0.42093  0.17824  1.0000
  H   H119      1.0  0.86035  0.45388  0.21079  1.0000
  C   C232      1.0  0.86829  0.39533  0.28740  1.0000
  H   H120      1.0  0.87359  0.39463  0.22601  1.0000
  C   C233      1.0  0.65654  0.45511  0.31316  1.0000
  C   C234      1.0  0.64456  0.43943  0.24476  1.0000
  C   C235      1.0  0.62502  0.41925  0.26395  1.0000
  H   H121      1.0  0.64999  0.44252  0.17945  1.0000
  H   H122      1.0  0.61703  0.40850  0.21203  1.0000
  C   C236      1.0  0.67553  0.47498  0.28859  1.0000
  H   H123      1.0  0.67627  0.48098  0.22720  1.0000
  C   C237      1.0  0.63144  0.20714  0.24462  1.0000
  C   C238      1.0  0.65162  0.20778  0.26362  1.0000
  H   H124      1.0  0.62835  0.20946  0.17934  1.0000
  H   H125      1.0  0.66237  0.21053  0.21161  1.0000
  C   C239      1.0  0.59588  0.20258  0.28877  1.0000
  H   H126      1.0  0.58989  0.19730  0.22742  1.0000
  C   C240      1.0  0.06980  0.32870  0.30939  1.0000
  C   C241      1.0  0.05352  0.32372  0.24191  1.0000
  C   C242      1.0  0.03056  0.31236  0.26147  1.0000
  H   H127      1.0  0.05825  0.32845  0.17663  1.0000
  H   H128      1.0  0.01963  0.30937  0.21004  1.0000
  C   C243      1.0  0.09237  0.33985  0.28375  1.0000
  H   H129      1.0  0.09595  0.33981  0.21905  1.0000
  C   C244      1.0  0.74214  0.74311  0.31057  1.0000
  C   C245      1.0  0.74717  0.73181  0.24308  1.0000
  C   C246      1.0  0.75853  0.72022  0.26262  1.0000
  H   H130      1.0  0.74247  0.73180  0.17782  1.0000
  H   H131      1.0  0.76155  0.71228  0.21118  1.0000
  C   C247      1.0  0.73101  0.75452  0.28494  1.0000
  H   H132      1.0  0.73106  0.75811  0.22024  1.0000
  C   C248      1.0  0.32776  0.00107  0.30939  1.0000
  C   C249      1.0  0.33914  0.01742  0.24206  1.0000
  C   C250      1.0  0.35072  0.04037  0.26179  1.0000
  H   H133      1.0  0.33923  0.01276  0.17678  1.0000
  H   H134      1.0  0.35872  0.05135  0.21046  1.0000
  C   C251      1.0  0.31639  0.97853  0.28359  1.0000
  H   H135      1.0  0.31287  0.97502  0.21884  1.0000
  C   C252      1.0  0.02332  0.71984  0.30907  1.0000
  C   C253      1.0  0.03963  0.72479  0.24149  1.0000
  C   C254      1.0  0.06259  0.73617  0.26085  1.0000
  H   H136      1.0  0.03492  0.72002  0.17630  1.0000
  H   H137      1.0  0.07354  0.73913  0.20937  1.0000
  C   C255      1.0  0.00077  0.70868  0.28362  1.0000
  H   H138      1.0  0.99721  0.70866  0.21892  1.0000
  C   C256      1.0  0.35101  0.30550  0.31022  1.0000
  C   C257      1.0  0.34610  0.31685  0.24265  1.0000
  C   C258      1.0  0.33472  0.32844  0.26203  1.0000
  H   H139      1.0  0.35091  0.31690  0.17745  1.0000
  H   H140      1.0  0.33179  0.33642  0.21055  1.0000
  C   C259      1.0  0.36218  0.29410  0.28475  1.0000
  H   H141      1.0  0.36221  0.29052  0.22006  1.0000
  C   C260      1.0  0.76539  0.04753  0.31005  1.0000
  C   C261      1.0  0.75411  0.03124  0.24257  1.0000
  C   C262      1.0  0.74251  0.00828  0.26211  1.0000
  H   H142      1.0  0.75411  0.03595  0.17730  1.0000
  H   H143      1.0  0.73458  0.99734  0.21067  1.0000
  C   C263      1.0  0.77680  0.07009  0.28443  1.0000
  H   H144      1.0  0.78040  0.07367  0.21971  1.0000
  C   C264      1.0  0.28652  0.38418  0.40470  1.0000
  C   C265      1.0  0.29608  0.37039  0.40379  1.0000
  C   C266      1.0  0.34737  0.51695  0.41084  1.0000
  C   C267      1.0  0.36887  0.53578  0.41258  1.0000
  C   C268      1.0  0.23022  0.53297  0.39845  1.0000
  C   C269      1.0  0.23316  0.51430  0.39820  1.0000
  C   C270      1.0  0.16707  0.38237  0.40685  1.0000
  C   C271      1.0  0.14372  0.36860  0.40942  1.0000
  H   H145      1.0  0.13598  0.36375  0.47064  1.0000
  H   H146      1.0  0.17566  0.38737  0.46613  1.0000
  H   H147      1.0  0.23289  0.50687  0.45803  1.0000
  H   H148      1.0  0.22769  0.53842  0.45869  1.0000
  H   H149      1.0  0.33855  0.51149  0.46957  1.0000
  H   H150      1.0  0.37527  0.54343  0.47287  1.0000
  H   H151      1.0  0.30120  0.36719  0.46343  1.0000
  H   H152      1.0  0.28514  0.39066  0.46463  1.0000
  C   C272      1.0  0.68663  0.90439  0.40547  1.0000
  C   C273      1.0  0.70041  0.92775  0.40440  1.0000
  C   C274      1.0  0.55385  0.83250  0.41155  1.0000
  C   C275      1.0  0.53502  0.83515  0.41318  1.0000
  C   C276      1.0  0.53784  0.69929  0.39969  1.0000
  C   C277      1.0  0.55652  0.72089  0.39944  1.0000
  C   C278      1.0  0.68843  0.78673  0.40807  1.0000
  C   C279      1.0  0.70219  0.77714  0.41064  1.0000
  H   H153      1.0  0.70702  0.77428  0.47186  1.0000
  H   H154      1.0  0.68340  0.79033  0.46734  1.0000
  H   H155      1.0  0.56389  0.72806  0.45928  1.0000
  H   H156      1.0  0.53234  0.69131  0.45994  1.0000
  H   H157      1.0  0.55924  0.82911  0.47033  1.0000
  H   H158      1.0  0.52730  0.83390  0.47341  1.0000
  H   H159      1.0  0.70361  0.93610  0.46400  1.0000
  H   H160      1.0  0.68010  0.89656  0.46541  1.0000
  C   C280      1.0  0.16644  0.78429  0.40351  1.0000
  C   C281      1.0  0.14309  0.77473  0.40258  1.0000
  C   C282      1.0  0.23831  0.72341  0.40971  1.0000
  C   C283      1.0  0.23562  0.70190  0.41146  1.0000
  C   C284      1.0  0.37147  0.84054  0.39859  1.0000
  C   C285      1.0  0.34986  0.83760  0.39809  1.0000
  C   C286      1.0  0.28402  0.90370  0.40629  1.0000
  C   C287      1.0  0.29363  0.92705  0.40898  1.0000
  H   H161      1.0  0.29641  0.93472  0.47024  1.0000
  H   H162      1.0  0.28037  0.89504  0.46551  1.0000
  H   H163      1.0  0.34261  0.83780  0.45784  1.0000
  H   H164      1.0  0.37935  0.84298  0.45894  1.0000
  H   H165      1.0  0.24162  0.73218  0.46848  1.0000
  H   H166      1.0  0.23682  0.69545  0.47174  1.0000
  H   H167      1.0  0.13472  0.76957  0.46223  1.0000
  H   H168      1.0  0.17425  0.78563  0.46344  1.0000
  C   C288      1.0  0.80651  0.66437  0.40585  1.0000
  C   C289      1.0  0.79696  0.67818  0.40484  1.0000
  C   C290      1.0  0.74566  0.53162  0.41271  1.0000
  C   C291      1.0  0.72417  0.51279  0.41449  1.0000
  C   C292      1.0  0.86283  0.51560  0.40020  1.0000
  C   C293      1.0  0.85991  0.53428  0.39992  1.0000
  C   C294      1.0  0.92603  0.66620  0.40750  1.0000
  C   C295      1.0  0.94938  0.67995  0.40984  1.0000
  H   H169      1.0  0.95710  0.68483  0.47098  1.0000
  H   H170      1.0  0.91741  0.66123  0.46686  1.0000
  H   H171      1.0  0.86010  0.54167  0.45973  1.0000
  H   H172      1.0  0.86530  0.51012  0.46047  1.0000
  H   H173      1.0  0.75444  0.53706  0.47145  1.0000
  H   H174      1.0  0.71771  0.50512  0.47480  1.0000
  H   H175      1.0  0.79176  0.68135  0.46443  1.0000
  H   H176      1.0  0.80780  0.65786  0.46580  1.0000
  C   C296      1.0  0.40638  0.14412  0.40599  1.0000
  C   C297      1.0  0.39259  0.12077  0.40475  1.0000
  C   C298      1.0  0.53920  0.21608  0.41330  1.0000
  C   C299      1.0  0.55804  0.21342  0.41496  1.0000
  C   C300      1.0  0.55521  0.34926  0.40146  1.0000
  C   C301      1.0  0.53655  0.32765  0.40115  1.0000
  C   C302      1.0  0.40456  0.26180  0.40849  1.0000
  C   C303      1.0  0.39080  0.27139  0.41086  1.0000
  H   H177      1.0  0.38588  0.27423  0.47201  1.0000
  H   H178      1.0  0.40950  0.25817  0.46784  1.0000
  H   H179      1.0  0.52909  0.32045  0.46096  1.0000
  H   H180      1.0  0.56064  0.35721  0.46172  1.0000
  H   H181      1.0  0.53375  0.21943  0.47207  1.0000
  H   H182      1.0  0.56569  0.21464  0.47521  1.0000
  H   H183      1.0  0.38933  0.11236  0.46428  1.0000
  H   H184      1.0  0.41281  0.15190  0.46602  1.0000
  C   C304      1.0  0.92665  0.26429  0.40495  1.0000
  C   C305      1.0  0.95000  0.27386  0.40385  1.0000
  C   C306      1.0  0.85476  0.32515  0.41162  1.0000
  C   C307      1.0  0.85742  0.34664  0.41337  1.0000
  C   C308      1.0  0.72158  0.20799  0.40051  1.0000
  C   C309      1.0  0.74318  0.21091  0.40002  1.0000
  C   C310      1.0  0.80901  0.14482  0.40764  1.0000
  C   C311      1.0  0.79942  0.12147  0.41019  1.0000
  H   H185      1.0  0.79655  0.11375  0.47139  1.0000
  H   H186      1.0  0.81260  0.15343  0.46693  1.0000
  H   H187      1.0  0.75038  0.21069  0.45977  1.0000
  H   H188      1.0  0.71363  0.20549  0.46084  1.0000
  H   H189      1.0  0.85138  0.31634  0.47037  1.0000
  H   H190      1.0  0.85617  0.35307  0.47367  1.0000
  H   H191      1.0  0.95835  0.27900  0.46344  1.0000
  H   H192      1.0  0.91881  0.26297  0.46491  1.0000
  C   C312      1.0  0.22693  0.59428  0.34941  1.0000
  C   C313      1.0  0.22325  0.60628  0.41774  1.0000
  C   C314      1.0  0.22255  0.62600  0.39959  1.0000
  H   H193      1.0  0.22085  0.60060  0.48266  1.0000
  N   N49       1.0  0.21835  0.63714  0.47016  1.0000
  O   O1        1.0  0.23314  0.64374  0.52973  1.0000
  O   O2        1.0  0.19969  0.62498  0.50613  1.0000
  C   C315      1.0  0.22748  0.57498  0.37132  1.0000
  H   H194      1.0  0.22596  0.57051  0.43553  1.0000
  C   C316      1.0  0.47655  0.63469  0.35063  1.0000
  C   C317      1.0  0.46450  0.61900  0.41895  1.0000
  C   C318      1.0  0.44480  0.59859  0.40078  1.0000
  H   H195      1.0  0.47014  0.62228  0.48387  1.0000
  N   N50       1.0  0.43361  0.58324  0.47134  1.0000
  O   O3        1.0  0.42698  0.59144  0.53092  1.0000
  O   O4        1.0  0.44575  0.57674  0.50731  1.0000
  C   C319      1.0  0.49584  0.65454  0.37255  1.0000
  H   H196      1.0  0.50027  0.65748  0.43677  1.0000
  C   C320      1.0  0.43613  0.84386  0.35028  1.0000
  C   C321      1.0  0.45172  0.84747  0.41878  1.0000
  C   C322      1.0  0.47216  0.84820  0.40084  1.0000
  H   H197      1.0  0.44835  0.84980  0.48367  1.0000
  N   N51       1.0  0.48741  0.85233  0.47157  1.0000
  O   O5        1.0  0.47914  0.83748  0.53103  1.0000
  O   O6        1.0  0.49385  0.87096  0.50765  1.0000
  C   C323      1.0  0.41624  0.84328  0.37198  1.0000
  H   H198      1.0  0.41320  0.84472  0.43617  1.0000
  C   C324      1.0  0.86614  0.45429  0.35129  1.0000
  C   C325      1.0  0.86976  0.44226  0.41964  1.0000
  C   C326      1.0  0.87048  0.42256  0.40151  1.0000
  H   H199      1.0  0.87210  0.44791  0.48456  1.0000
  N   N52       1.0  0.87463  0.41139  0.47210  1.0000
  O   O7        1.0  0.85978  0.40477  0.53166  1.0000
  O   O8        1.0  0.89325  0.42354  0.50807  1.0000
  C   C327      1.0  0.86556  0.47357  0.37318  1.0000
  H   H200      1.0  0.86701  0.47801  0.43740  1.0000
  C   C328      1.0  0.61654  0.41389  0.35254  1.0000
  C   C329      1.0  0.62853  0.42954  0.42088  1.0000
  C   C330      1.0  0.64824  0.44997  0.40274  1.0000
  H   H201      1.0  0.62283  0.42623  0.48580  1.0000
  N   N53       1.0  0.65937  0.46528  0.47331  1.0000
  O   O9        1.0  0.66595  0.45706  0.53287  1.0000
  O   O10       1.0  0.64719  0.47176  0.50930  1.0000
  C   C331      1.0  0.59723  0.39403  0.37443  1.0000
  H   H202      1.0  0.59275  0.39105  0.43864  1.0000
  C   C332      1.0  0.65697  0.20470  0.35217  1.0000
  C   C333      1.0  0.64131  0.20106  0.42065  1.0000
  C   C334      1.0  0.62089  0.20034  0.40269  1.0000
  C   C335      1.0  0.61576  0.20348  0.31316  1.0000
  H   H203      1.0  0.64463  0.19870  0.48554  1.0000
  N   N54       1.0  0.60557  0.19619  0.47341  1.0000
  O   O11       1.0  0.61379  0.21101  0.53287  1.0000
  O   O12       1.0  0.59909  0.17755  0.50948  1.0000
  C   C336      1.0  0.67684  0.20527  0.37388  1.0000
  H   H204      1.0  0.67981  0.20380  0.43808  1.0000
  C   C337      1.0  0.02265  0.30532  0.34986  1.0000
  C   C338      1.0  0.03885  0.31025  0.41737  1.0000
  C   C339      1.0  0.06206  0.32166  0.39877  1.0000
  H   H205      1.0  0.03378  0.30541  0.48227  1.0000
  N   N55       1.0  0.07740  0.32580  0.46910  1.0000
  O   O13       1.0  0.07618  0.33782  0.52949  1.0000
  O   O14       1.0  0.07452  0.30805  0.50404  1.0000
  C   C340      1.0  0.99998  0.29435  0.37257  1.0000
  H   H206      1.0  0.99596  0.29172  0.43731  1.0000
  C   C341      1.0  0.76552  0.71936  0.35100  1.0000
  C   C342      1.0  0.76055  0.73062  0.41852  1.0000
  C   C343      1.0  0.74914  0.74241  0.39995  1.0000
  H   H207      1.0  0.76536  0.73040  0.48341  1.0000
  N   N56       1.0  0.74496  0.75362  0.47029  1.0000
  O   O15       1.0  0.73291  0.74038  0.53070  1.0000
  O   O16       1.0  0.76269  0.76849  0.50520  1.0000
  C   C344      1.0  0.77650  0.70768  0.37367  1.0000
  H   H208      1.0  0.77914  0.70633  0.43839  1.0000
  C   C345      1.0  0.35147  0.04817  0.35021  1.0000
  C   C346      1.0  0.34012  0.03190  0.41758  1.0000
  C   C347      1.0  0.32835  0.00871  0.39881  1.0000
  H   H209      1.0  0.34027  0.03690  0.48249  1.0000
  N   N57       1.0  0.31706  0.99329  0.46900  1.0000
  O   O17       1.0  0.33023  0.99445  0.52951  1.0000
  O   O18       1.0  0.30215  0.99614  0.50383  1.0000
  C   C348      1.0  0.36314  0.07082  0.37309  1.0000
  H   H210      1.0  0.36443  0.07477  0.43785  1.0000
  C   C349      1.0  0.07046  0.74326  0.34913  1.0000
  C   C350      1.0  0.05424  0.73836  0.41673  1.0000
  C   C351      1.0  0.03104  0.72694  0.39834  1.0000
  H   H211      1.0  0.05929  0.74324  0.48155  1.0000
  N   N58       1.0  0.01567  0.72284  0.46874  1.0000
  O   O19       1.0  0.01687  0.71085  0.52932  1.0000
  O   O20       1.0  0.01854  0.74061  0.50341  1.0000
  C   C352      1.0  0.09313  0.75425  0.37166  1.0000
  H   H212      1.0  0.09712  0.75690  0.43635  1.0000
  C   C353      1.0  0.32759  0.32924  0.35032  1.0000
  C   C354      1.0  0.33245  0.31792  0.41791  1.0000
  C   C355      1.0  0.34387  0.30613  0.39951  1.0000
  H   H213      1.0  0.32753  0.31810  0.48274  1.0000
  N   N59       1.0  0.34793  0.29486  0.46990  1.0000
  O   O21       1.0  0.35989  0.30806  0.53045  1.0000
  O   O22       1.0  0.33014  0.27997  0.50460  1.0000
  C   C356      1.0  0.31659  0.34091  0.37285  1.0000
  H   H214      1.0  0.31388  0.34225  0.43755  1.0000
  C   C357      1.0  0.74163  0.00039  0.35049  1.0000
  C   C358      1.0  0.75288  0.01660  0.41800  1.0000
  C   C359      1.0  0.76467  0.03981  0.39943  1.0000
  H   H215      1.0  0.75264  0.01154  0.48289  1.0000
  N   N60       1.0  0.77587  0.05516  0.46977  1.0000
  O   O23       1.0  0.76261  0.05395  0.53018  1.0000
  O   O24       1.0  0.79073  0.05228  0.50468  1.0000
  C   C360      1.0  0.72993  0.97772  0.37318  1.0000
  H   H216      1.0  0.72852  0.97371  0.43792  1.0000
