data_image0
_chemical_formula_structural       C3OHC2HC3OHC2HCHC2NO2CHC2NO2CHCHC2NO2CHC2NO2CHC2NO2CHCHC2NO2C2NO2CHCHC2NO2C3OHC6O2H2C6O2H2C3HNO2C3HNO2C3HNO2C3HNO2C3H2C3H2C3H2C3H2C3H2C3HNO2C3HNO2C3HNO2C3HNO2C3OHC6O2H2C6O2H2C3HNO2C3HNO2C3HNO2C3HNO2C3H2C3H2C3H2C3H2C3H2C3HNO2C3HNO2C3HNO2C3HNO2C6O2H2C6O2H2C6O2H2C3HNO2C3HNO2C3HNO2C3HNO2C3HNO2C3HNO2C3H2C3H2C3H2C3H2C3H2C3H2C3HNO2C3HNO2C3HNO2C3HNO2C3HNO2C3HNO2C6O2H2C6O2H2C6O2H2C3HNO2C3HNO2C3HNO2C3HNO2C3HNO2C3HNO2C3H2C3H2C3H2C3H2C3H2C3H2C3HNO2C3HNO2C3HNO2C3HNO2C3HNO2C3HNO2
_chemical_formula_sum              "C288 O120 H120 N48"
_cell_length_a       46.7789
_cell_length_b       46.779
_cell_length_c       14.8856
_cell_angle_alpha    90
_cell_angle_beta     90
_cell_angle_gamma    120

_space_group_name_H-M_alt    "P 1"
_space_group_IT_number       1

loop_
  _space_group_symop_operation_xyz
  'x, y, z'

loop_
  _atom_site_type_symbol
  _atom_site_label
  _atom_site_symmetry_multiplicity
  _atom_site_fract_x
  _atom_site_fract_y
  _atom_site_fract_z
  _atom_site_occupancy
  C   C1        1.0  0.02374  0.26325  0.33992  1.0000
  C   C2        1.0  0.04300  0.29867  0.32958  1.0000
  C   C3        1.0  0.07787  0.31656  0.34009  1.0000
  O   O1        1.0  0.03008  0.31761  0.30207  1.0000
  H   H1        1.0  0.02545  0.31325  0.23749  1.0000
  C   C4        1.0  0.07785  0.26433  0.35042  1.0000
  C   C5        1.0  0.04301  0.24745  0.35203  1.0000
  H   H2        1.0  0.03219  0.22297  0.36581  1.0000
  C   C6        1.0  0.02374  0.76325  0.33992  1.0000
  C   C7        1.0  0.04300  0.79867  0.32958  1.0000
  C   C8        1.0  0.07787  0.81656  0.34009  1.0000
  O   O2        1.0  0.03008  0.81761  0.30207  1.0000
  H   H3        1.0  0.02545  0.81325  0.23749  1.0000
  C   C9        1.0  0.07785  0.76433  0.35042  1.0000
  C   C10       1.0  0.04301  0.74745  0.35203  1.0000
  H   H4        1.0  0.03219  0.72297  0.36581  1.0000
  C   C11       1.0  0.11176  0.24912  0.26434  1.0000
  H   H5        1.0  0.10230  0.25317  0.20673  1.0000
  C   C12       1.0  0.09770  0.35145  0.33873  1.0000
  C   C13       1.0  0.11516  0.36725  0.25909  1.0000
  N   N1        1.0  0.10384  0.35064  0.17578  1.0000
  O   O3        1.0  0.09821  0.36757  0.12064  1.0000
  O   O4        1.0  0.12428  0.34381  0.14159  1.0000
  C   C14       1.0  0.09481  0.29893  0.34768  1.0000
  H   H6        1.0  0.12018  0.31155  0.34960  1.0000
  C   C15       1.0  0.09697  0.24855  0.34785  1.0000
  C   C16       1.0  0.11294  0.24713  0.42735  1.0000
  N   N2        1.0  0.10015  0.24937  0.51173  1.0000
  O   O5        1.0  0.09312  0.22465  0.55985  1.0000
  O   O6        1.0  0.12018  0.27498  0.55369  1.0000
  C   C17       1.0  0.11126  0.36706  0.42189  1.0000
  H   H7        1.0  0.10060  0.35472  0.48035  1.0000
  C   C18       1.0  0.11176  0.74912  0.26434  1.0000
  H   H8        1.0  0.10230  0.75317  0.20673  1.0000
  C   C19       1.0  0.09771  0.85145  0.33873  1.0000
  C   C20       1.0  0.11516  0.86725  0.25909  1.0000
  N   N3        1.0  0.10384  0.85064  0.17578  1.0000
  O   O7        1.0  0.09821  0.86757  0.12064  1.0000
  O   O8        1.0  0.12428  0.84381  0.14159  1.0000
  C   C21       1.0  0.09481  0.79893  0.34768  1.0000
  H   H9        1.0  0.12018  0.81155  0.34960  1.0000
  C   C22       1.0  0.09697  0.74855  0.34785  1.0000
  C   C23       1.0  0.11294  0.74712  0.42735  1.0000
  N   N4        1.0  0.10015  0.74937  0.51173  1.0000
  O   O9        1.0  0.09312  0.72465  0.55985  1.0000
  O   O10       1.0  0.12018  0.77498  0.55369  1.0000
  C   C24       1.0  0.11126  0.86706  0.42189  1.0000
  H   H10       1.0  0.10061  0.85473  0.48035  1.0000
  C   C25       1.0  0.15811  0.24805  0.33794  1.0000
  C   C26       1.0  0.14224  0.24962  0.25844  1.0000
  N   N5        1.0  0.15875  0.25476  0.17502  1.0000
  O   O11       1.0  0.14172  0.23216  0.12013  1.0000
  O   O12       1.0  0.16560  0.28201  0.14062  1.0000
  C   C27       1.0  0.14509  0.39779  0.26473  1.0000
  H   H11       1.0  0.15859  0.40712  0.20703  1.0000
  C   C28       1.0  0.14270  0.24619  0.42135  1.0000
  H   H12       1.0  0.15513  0.24800  0.47973  1.0000
  C   C29       1.0  0.15928  0.41278  0.34818  1.0000
  C   C30       1.0  0.14189  0.39690  0.42768  1.0000
  N   N6        1.0  0.15694  0.40985  0.51192  1.0000
  O   O13       1.0  0.13920  0.41686  0.55989  1.0000
  O   O14       1.0  0.16261  0.38993  0.55414  1.0000
  C   C31       1.0  0.15811  0.74805  0.33794  1.0000
  C   C32       1.0  0.14224  0.74962  0.25844  1.0000
  N   N7        1.0  0.15875  0.75476  0.17502  1.0000
  O   O15       1.0  0.14172  0.73216  0.12013  1.0000
  O   O16       1.0  0.16560  0.78201  0.14062  1.0000
  C   C33       1.0  0.14509  0.89779  0.26473  1.0000
  H   H13       1.0  0.15859  0.90712  0.20703  1.0000
  C   C34       1.0  0.14270  0.74619  0.42135  1.0000
  H   H14       1.0  0.15513  0.74800  0.47973  1.0000
  C   C35       1.0  0.15928  0.91278  0.34818  1.0000
  C   C36       1.0  0.14189  0.89691  0.42768  1.0000
  N   N8        1.0  0.15694  0.90985  0.51192  1.0000
  O   O17       1.0  0.13920  0.91687  0.55989  1.0000
  O   O18       1.0  0.16261  0.88993  0.55414  1.0000
  C   C37       1.0  0.48787  0.24444  0.33987  1.0000
  C   C38       1.0  0.43373  0.19115  0.33963  1.0000
  C   C39       1.0  0.46860  0.20903  0.32921  1.0000
  O   O19       1.0  0.48153  0.19012  0.30158  1.0000
  H   H15       1.0  0.48617  0.19451  0.23703  1.0000
  C   C40       1.0  0.26515  0.24528  0.34004  1.0000
  C   C41       1.0  0.31844  0.24444  0.33979  1.0000
  C   C42       1.0  0.30056  0.26142  0.32944  1.0000
  C   C43       1.0  0.24632  0.26232  0.34000  1.0000
  C   C44       1.0  0.21092  0.24616  0.32933  1.0000
  C   C45       1.0  0.19302  0.26315  0.33945  1.0000
  O   O20       1.0  0.31948  0.29331  0.30211  1.0000
  O   O21       1.0  0.19201  0.21430  0.30178  1.0000
  H   H16       1.0  0.31516  0.29361  0.23753  1.0000
  H   H17       1.0  0.19641  0.21404  0.23724  1.0000
  C   C46       1.0  0.26432  0.02182  0.34001  1.0000
  C   C47       1.0  0.26511  0.07593  0.34008  1.0000
  C   C48       1.0  0.24816  0.04107  0.32947  1.0000
  C   C49       1.0  0.24726  0.48594  0.33993  1.0000
  C   C50       1.0  0.26340  0.46668  0.32937  1.0000
  C   C51       1.0  0.24638  0.43180  0.33952  1.0000
  O   O22       1.0  0.21632  0.02812  0.30174  1.0000
  O   O23       1.0  0.29527  0.47961  0.30195  1.0000
  H   H18       1.0  0.21611  0.02350  0.23718  1.0000
  H   H19       1.0  0.29556  0.48425  0.23739  1.0000
  C   C52       1.0  0.26142  0.41195  0.33811  1.0000
  C   C53       1.0  0.25974  0.39441  0.25866  1.0000
  C   C54       1.0  0.26032  0.36446  0.26445  1.0000
  H   H20       1.0  0.25614  0.35094  0.20679  1.0000
  N   N9        1.0  0.25445  0.40569  0.17529  1.0000
  O   O24       1.0  0.27698  0.41127  0.12014  1.0000
  O   O25       1.0  0.22715  0.38524  0.14119  1.0000
  C   C55       1.0  0.35333  0.25949  0.33827  1.0000
  C   C56       1.0  0.36929  0.25793  0.25891  1.0000
  C   C57       1.0  0.39980  0.25848  0.26479  1.0000
  H   H21       1.0  0.40927  0.25447  0.20713  1.0000
  N   N10       1.0  0.35279  0.25273  0.17547  1.0000
  O   O26       1.0  0.36979  0.27532  0.12051  1.0000
  O   O27       1.0  0.34597  0.22547  0.14117  1.0000
  C   C58       1.0  0.25002  0.09574  0.33836  1.0000
  C   C59       1.0  0.25151  0.11314  0.25885  1.0000
  C   C60       1.0  0.25096  0.14310  0.26458  1.0000
  H   H22       1.0  0.25496  0.15657  0.20691  1.0000
  N   N11       1.0  0.25665  0.10175  0.17547  1.0000
  O   O28       1.0  0.23402  0.09612  0.12060  1.0000
  O   O29       1.0  0.28388  0.12216  0.14100  1.0000
  C   C61       1.0  0.41390  0.15625  0.33807  1.0000
  C   C62       1.0  0.39643  0.14028  0.25867  1.0000
  C   C63       1.0  0.36648  0.10977  0.26457  1.0000
  H   H23       1.0  0.35296  0.10034  0.20696  1.0000
  N   N12       1.0  0.40777  0.15678  0.17524  1.0000
  O   O30       1.0  0.41338  0.13977  0.12035  1.0000
  O   O31       1.0  0.38735  0.16360  0.14084  1.0000
  C   C64       1.0  0.46860  0.26023  0.35226  1.0000
  C   C65       1.0  0.43377  0.24338  0.35024  1.0000
  C   C66       1.0  0.41679  0.20878  0.34731  1.0000
  H   H24       1.0  0.47942  0.28469  0.36632  1.0000
  H   H25       1.0  0.39143  0.19616  0.34912  1.0000
  C   C67       1.0  0.24936  0.21022  0.35227  1.0000
  C   C68       1.0  0.26621  0.19223  0.35033  1.0000
  C   C69       1.0  0.30081  0.20986  0.34733  1.0000
  H   H26       1.0  0.22489  0.19657  0.36634  1.0000
  H   H27       1.0  0.31343  0.19711  0.34910  1.0000
  C   C70       1.0  0.21064  0.29772  0.34692  1.0000
  C   C71       1.0  0.24524  0.31536  0.35002  1.0000
  C   C72       1.0  0.26210  0.29738  0.35232  1.0000
  H   H28       1.0  0.19802  0.31046  0.34860  1.0000
  H   H29       1.0  0.28656  0.31103  0.36638  1.0000
  C   C73       1.0  0.29938  0.04110  0.35228  1.0000
  C   C74       1.0  0.31733  0.07594  0.35068  1.0000
  C   C75       1.0  0.29968  0.09289  0.34777  1.0000
  H   H30       1.0  0.31305  0.03028  0.36604  1.0000
  H   H31       1.0  0.31241  0.11825  0.34955  1.0000
  C   C76       1.0  0.21180  0.41487  0.34699  1.0000
  C   C77       1.0  0.19419  0.43185  0.35002  1.0000
  C   C78       1.0  0.21220  0.46669  0.35224  1.0000
  H   H32       1.0  0.19905  0.38950  0.34882  1.0000
  H   H33       1.0  0.19857  0.47752  0.36645  1.0000
  C   C79       1.0  0.26104  0.35025  0.34790  1.0000
  C   C80       1.0  0.26260  0.36774  0.42727  1.0000
  C   C81       1.0  0.26353  0.39844  0.42134  1.0000
  H   H34       1.0  0.26175  0.40906  0.47973  1.0000
  N   N13       1.0  0.26042  0.35273  0.51161  1.0000
  O   O32       1.0  0.28518  0.37042  0.55959  1.0000
  O   O33       1.0  0.23485  0.34715  0.55375  1.0000
  C   C82       1.0  0.41468  0.25920  0.34833  1.0000
  C   C83       1.0  0.39866  0.26060  0.42768  1.0000
  C   C84       1.0  0.36883  0.26138  0.42160  1.0000
  H   H35       1.0  0.35643  0.25964  0.47998  1.0000
  N   N14       1.0  0.41147  0.25837  0.51203  1.0000
  O   O34       1.0  0.41841  0.28306  0.56019  1.0000
  O   O35       1.0  0.39149  0.23272  0.55392  1.0000
  C   C85       1.0  0.25040  0.15733  0.34808  1.0000
  C   C86       1.0  0.24908  0.14005  0.42767  1.0000
  C   C87       1.0  0.24822  0.10938  0.42172  1.0000
  H   H36       1.0  0.25008  0.09882  0.48016  1.0000
  N   N15       1.0  0.25137  0.15514  0.51197  1.0000
  O   O36       1.0  0.22670  0.13744  0.56026  1.0000
  O   O37       1.0  0.27703  0.16080  0.55378  1.0000
  C   C88       1.0  0.35223  0.09506  0.34813  1.0000
  C   C89       1.0  0.36960  0.11109  0.42758  1.0000
  C   C90       1.0  0.40031  0.14084  0.42150  1.0000
  H   H37       1.0  0.41091  0.15332  0.47983  1.0000
  N   N16       1.0  0.35455  0.09837  0.51198  1.0000
  O   O38       1.0  0.37224  0.09137  0.56026  1.0000
  O   O39       1.0  0.34897  0.11844  0.55374  1.0000
  C   C91       1.0  0.48786  0.74444  0.33987  1.0000
  C   C92       1.0  0.43373  0.69115  0.33963  1.0000
  C   C93       1.0  0.46860  0.70903  0.32921  1.0000
  O   O40       1.0  0.48153  0.69012  0.30158  1.0000
  H   H38       1.0  0.48617  0.69451  0.23703  1.0000
  C   C94       1.0  0.26515  0.74528  0.34004  1.0000
  C   C95       1.0  0.31844  0.74444  0.33979  1.0000
  C   C96       1.0  0.30056  0.76142  0.32944  1.0000
  C   C97       1.0  0.24632  0.76232  0.34000  1.0000
  C   C98       1.0  0.21092  0.74616  0.32933  1.0000
  C   C99       1.0  0.19302  0.76315  0.33945  1.0000
  O   O41       1.0  0.31948  0.79331  0.30211  1.0000
  O   O42       1.0  0.19201  0.71430  0.30178  1.0000
  H   H39       1.0  0.31516  0.79361  0.23753  1.0000
  H   H40       1.0  0.19642  0.71404  0.23724  1.0000
  C   C100      1.0  0.26432  0.52182  0.34001  1.0000
  C   C101      1.0  0.26511  0.57593  0.34008  1.0000
  C   C102      1.0  0.24816  0.54107  0.32947  1.0000
  C   C103      1.0  0.24726  0.98594  0.33993  1.0000
  C   C104      1.0  0.26339  0.96668  0.32937  1.0000
  C   C105      1.0  0.24638  0.93180  0.33952  1.0000
  O   O43       1.0  0.21632  0.52812  0.30174  1.0000
  O   O44       1.0  0.29527  0.97961  0.30195  1.0000
  H   H41       1.0  0.21611  0.52350  0.23718  1.0000
  H   H42       1.0  0.29556  0.98426  0.23739  1.0000
  C   C106      1.0  0.26142  0.91195  0.33811  1.0000
  C   C107      1.0  0.25974  0.89441  0.25866  1.0000
  C   C108      1.0  0.26032  0.86446  0.26445  1.0000
  H   H43       1.0  0.25614  0.85094  0.20679  1.0000
  N   N17       1.0  0.25445  0.90569  0.17529  1.0000
  O   O45       1.0  0.27698  0.91127  0.12014  1.0000
  O   O46       1.0  0.22716  0.88524  0.14119  1.0000
  C   C109      1.0  0.35333  0.75950  0.33827  1.0000
  C   C110      1.0  0.36929  0.75793  0.25891  1.0000
  C   C111      1.0  0.39980  0.75848  0.26479  1.0000
  H   H44       1.0  0.40927  0.75447  0.20713  1.0000
  N   N18       1.0  0.35279  0.75273  0.17547  1.0000
  O   O47       1.0  0.36979  0.77532  0.12051  1.0000
  O   O48       1.0  0.34597  0.72547  0.14117  1.0000
  C   C112      1.0  0.25002  0.59574  0.33836  1.0000
  C   C113      1.0  0.25151  0.61314  0.25885  1.0000
  C   C114      1.0  0.25096  0.64310  0.26458  1.0000
  H   H45       1.0  0.25496  0.65658  0.20691  1.0000
  N   N19       1.0  0.25665  0.60175  0.17547  1.0000
  O   O49       1.0  0.23402  0.59612  0.12060  1.0000
  O   O50       1.0  0.28388  0.62216  0.14100  1.0000
  C   C115      1.0  0.41390  0.65625  0.33807  1.0000
  C   C116      1.0  0.39643  0.64028  0.25867  1.0000
  C   C117      1.0  0.36648  0.60977  0.26457  1.0000
  H   H46       1.0  0.35296  0.60034  0.20696  1.0000
  N   N20       1.0  0.40777  0.65678  0.17524  1.0000
  O   O51       1.0  0.41338  0.63977  0.12035  1.0000
  O   O52       1.0  0.38735  0.66360  0.14084  1.0000
  C   C118      1.0  0.46860  0.76023  0.35226  1.0000
  C   C119      1.0  0.43377  0.74338  0.35024  1.0000
  C   C120      1.0  0.41679  0.70878  0.34731  1.0000
  H   H47       1.0  0.47942  0.78469  0.36632  1.0000
  H   H48       1.0  0.39143  0.69616  0.34912  1.0000
  C   C121      1.0  0.24936  0.71022  0.35227  1.0000
  C   C122      1.0  0.26621  0.69223  0.35033  1.0000
  C   C123      1.0  0.30081  0.70986  0.34733  1.0000
  H   H49       1.0  0.22489  0.69657  0.36634  1.0000
  H   H50       1.0  0.31343  0.69711  0.34910  1.0000
  C   C124      1.0  0.21064  0.79772  0.34692  1.0000
  C   C125      1.0  0.24524  0.81536  0.35002  1.0000
  C   C126      1.0  0.26210  0.79738  0.35232  1.0000
  H   H51       1.0  0.19802  0.81046  0.34860  1.0000
  H   H52       1.0  0.28656  0.81103  0.36638  1.0000
  C   C127      1.0  0.29938  0.54110  0.35228  1.0000
  C   C128      1.0  0.31733  0.57594  0.35068  1.0000
  C   C129      1.0  0.29968  0.59288  0.34777  1.0000
  H   H53       1.0  0.31305  0.53028  0.36604  1.0000
  H   H54       1.0  0.31241  0.61825  0.34955  1.0000
  C   C130      1.0  0.21180  0.91487  0.34699  1.0000
  C   C131      1.0  0.19419  0.93185  0.35002  1.0000
  C   C132      1.0  0.21220  0.96669  0.35224  1.0000
  H   H55       1.0  0.19904  0.88950  0.34882  1.0000
  H   H56       1.0  0.19857  0.97752  0.36645  1.0000
  C   C133      1.0  0.26104  0.85025  0.34790  1.0000
  C   C134      1.0  0.26260  0.86774  0.42727  1.0000
  C   C135      1.0  0.26353  0.89844  0.42134  1.0000
  H   H57       1.0  0.26175  0.90906  0.47973  1.0000
  N   N21       1.0  0.26042  0.85273  0.51161  1.0000
  O   O53       1.0  0.28518  0.87042  0.55959  1.0000
  O   O54       1.0  0.23485  0.84715  0.55375  1.0000
  C   C136      1.0  0.41468  0.75920  0.34833  1.0000
  C   C137      1.0  0.39866  0.76060  0.42768  1.0000
  C   C138      1.0  0.36883  0.76138  0.42160  1.0000
  H   H58       1.0  0.35642  0.75964  0.47998  1.0000
  N   N22       1.0  0.41147  0.75837  0.51203  1.0000
  O   O55       1.0  0.41841  0.78306  0.56019  1.0000
  O   O56       1.0  0.39149  0.73272  0.55392  1.0000
  C   C139      1.0  0.25040  0.65733  0.34808  1.0000
  C   C140      1.0  0.24908  0.64005  0.42767  1.0000
  C   C141      1.0  0.24822  0.60938  0.42172  1.0000
  H   H59       1.0  0.25008  0.59882  0.48016  1.0000
  N   N23       1.0  0.25137  0.65514  0.51197  1.0000
  O   O57       1.0  0.22670  0.63744  0.56026  1.0000
  O   O58       1.0  0.27703  0.66080  0.55378  1.0000
  C   C142      1.0  0.35223  0.59506  0.34813  1.0000
  C   C143      1.0  0.36961  0.61109  0.42758  1.0000
  C   C144      1.0  0.40031  0.64084  0.42150  1.0000
  H   H60       1.0  0.41091  0.65332  0.47983  1.0000
  N   N24       1.0  0.35456  0.59837  0.51198  1.0000
  O   O59       1.0  0.37224  0.59137  0.56026  1.0000
  O   O60       1.0  0.34897  0.61844  0.55374  1.0000
  C   C145      1.0  0.98786  0.24444  0.33987  1.0000
  C   C146      1.0  0.93373  0.19115  0.33963  1.0000
  C   C147      1.0  0.96860  0.20903  0.32921  1.0000
  C   C148      1.0  0.52374  0.26325  0.33992  1.0000
  C   C149      1.0  0.54300  0.29867  0.32958  1.0000
  C   C150      1.0  0.57787  0.31656  0.34009  1.0000
  O   O61       1.0  0.98153  0.19012  0.30158  1.0000
  O   O62       1.0  0.53008  0.31761  0.30207  1.0000
  H   H61       1.0  0.98617  0.19451  0.23703  1.0000
  H   H62       1.0  0.52545  0.31325  0.23749  1.0000
  C   C151      1.0  0.76515  0.24528  0.34004  1.0000
  C   C152      1.0  0.81844  0.24444  0.33979  1.0000
  C   C153      1.0  0.80056  0.26142  0.32944  1.0000
  C   C154      1.0  0.74632  0.26232  0.34000  1.0000
  C   C155      1.0  0.71092  0.24616  0.32933  1.0000
  C   C156      1.0  0.69302  0.26315  0.33945  1.0000
  O   O63       1.0  0.81948  0.29331  0.30211  1.0000
  O   O64       1.0  0.69201  0.21430  0.30178  1.0000
  H   H63       1.0  0.81515  0.29361  0.23753  1.0000
  H   H64       1.0  0.69642  0.21404  0.23724  1.0000
  C   C157      1.0  0.76432  0.02182  0.34001  1.0000
  C   C158      1.0  0.76511  0.07593  0.34008  1.0000
  C   C159      1.0  0.74816  0.04107  0.32947  1.0000
  C   C160      1.0  0.74726  0.48594  0.33993  1.0000
  C   C161      1.0  0.76340  0.46668  0.32937  1.0000
  C   C162      1.0  0.74638  0.43180  0.33952  1.0000
  O   O65       1.0  0.71632  0.02812  0.30174  1.0000
  O   O66       1.0  0.79527  0.47961  0.30195  1.0000
  H   H65       1.0  0.71611  0.02350  0.23718  1.0000
  H   H66       1.0  0.79556  0.48425  0.23739  1.0000
  C   C163      1.0  0.65811  0.24805  0.33794  1.0000
  C   C164      1.0  0.64224  0.24962  0.25844  1.0000
  C   C165      1.0  0.61176  0.24912  0.26434  1.0000
  H   H67       1.0  0.60230  0.25317  0.20673  1.0000
  N   N25       1.0  0.65875  0.25476  0.17502  1.0000
  O   O67       1.0  0.64172  0.23216  0.12013  1.0000
  O   O68       1.0  0.66560  0.28201  0.14062  1.0000
  C   C166      1.0  0.76142  0.41195  0.33811  1.0000
  C   C167      1.0  0.75974  0.39441  0.25866  1.0000
  C   C168      1.0  0.76032  0.36446  0.26445  1.0000
  H   H68       1.0  0.75614  0.35094  0.20679  1.0000
  N   N26       1.0  0.75445  0.40569  0.17529  1.0000
  O   O69       1.0  0.77698  0.41127  0.12014  1.0000
  O   O70       1.0  0.72716  0.38524  0.14119  1.0000
  C   C169      1.0  0.59771  0.35145  0.33873  1.0000
  C   C170      1.0  0.61516  0.36725  0.25909  1.0000
  C   C171      1.0  0.64509  0.39779  0.26473  1.0000
  H   H69       1.0  0.65859  0.40712  0.20703  1.0000
  N   N27       1.0  0.60384  0.35064  0.17578  1.0000
  O   O71       1.0  0.59821  0.36757  0.12064  1.0000
  O   O72       1.0  0.62428  0.34381  0.14159  1.0000
  C   C172      1.0  0.85333  0.25949  0.33827  1.0000
  C   C173      1.0  0.86929  0.25793  0.25891  1.0000
  C   C174      1.0  0.89980  0.25848  0.26479  1.0000
  H   H70       1.0  0.90927  0.25447  0.20713  1.0000
  N   N28       1.0  0.85279  0.25273  0.17547  1.0000
  O   O73       1.0  0.86979  0.27532  0.12051  1.0000
  O   O74       1.0  0.84597  0.22547  0.14117  1.0000
  C   C175      1.0  0.75002  0.09574  0.33836  1.0000
  C   C176      1.0  0.75151  0.11314  0.25885  1.0000
  C   C177      1.0  0.75096  0.14310  0.26458  1.0000
  H   H71       1.0  0.75496  0.15657  0.20691  1.0000
  N   N29       1.0  0.75665  0.10175  0.17547  1.0000
  O   O75       1.0  0.73402  0.09612  0.12060  1.0000
  O   O76       1.0  0.78388  0.12216  0.14100  1.0000
  C   C178      1.0  0.91390  0.15625  0.33807  1.0000
  C   C179      1.0  0.89643  0.14028  0.25867  1.0000
  C   C180      1.0  0.86648  0.10977  0.26457  1.0000
  H   H72       1.0  0.85296  0.10034  0.20696  1.0000
  N   N30       1.0  0.90777  0.15678  0.17524  1.0000
  O   O77       1.0  0.91338  0.13977  0.12035  1.0000
  O   O78       1.0  0.88735  0.16360  0.14084  1.0000
  C   C181      1.0  0.96860  0.26023  0.35226  1.0000
  C   C182      1.0  0.93377  0.24338  0.35024  1.0000
  C   C183      1.0  0.91679  0.20878  0.34731  1.0000
  H   H73       1.0  0.97943  0.28469  0.36632  1.0000
  H   H74       1.0  0.89143  0.19616  0.34912  1.0000
  C   C184      1.0  0.59481  0.29893  0.34768  1.0000
  C   C185      1.0  0.57785  0.26433  0.35042  1.0000
  C   C186      1.0  0.54301  0.24745  0.35203  1.0000
  H   H75       1.0  0.62018  0.31155  0.34960  1.0000
  H   H76       1.0  0.53219  0.22297  0.36581  1.0000
  C   C187      1.0  0.74936  0.21022  0.35227  1.0000
  C   C188      1.0  0.76621  0.19223  0.35033  1.0000
  C   C189      1.0  0.80081  0.20986  0.34733  1.0000
  H   H77       1.0  0.72489  0.19657  0.36634  1.0000
  H   H78       1.0  0.81343  0.19711  0.34910  1.0000
  C   C190      1.0  0.71064  0.29772  0.34692  1.0000
  C   C191      1.0  0.74524  0.31536  0.35002  1.0000
  C   C192      1.0  0.76210  0.29738  0.35232  1.0000
  H   H79       1.0  0.69802  0.31046  0.34860  1.0000
  H   H80       1.0  0.78656  0.31103  0.36638  1.0000
  C   C193      1.0  0.79938  0.04110  0.35228  1.0000
  C   C194      1.0  0.81733  0.07594  0.35068  1.0000
  C   C195      1.0  0.79968  0.09289  0.34777  1.0000
  H   H81       1.0  0.81305  0.03028  0.36604  1.0000
  H   H82       1.0  0.81241  0.11825  0.34955  1.0000
  C   C196      1.0  0.71180  0.41487  0.34699  1.0000
  C   C197      1.0  0.69419  0.43185  0.35002  1.0000
  C   C198      1.0  0.71220  0.46669  0.35224  1.0000
  H   H83       1.0  0.69904  0.38950  0.34882  1.0000
  H   H84       1.0  0.69857  0.47752  0.36645  1.0000
  C   C199      1.0  0.59697  0.24855  0.34785  1.0000
  C   C200      1.0  0.61294  0.24713  0.42735  1.0000
  C   C201      1.0  0.64270  0.24619  0.42135  1.0000
  H   H85       1.0  0.65513  0.24800  0.47973  1.0000
  N   N31       1.0  0.60015  0.24937  0.51173  1.0000
  O   O79       1.0  0.59313  0.22465  0.55985  1.0000
  O   O80       1.0  0.62018  0.27498  0.55369  1.0000
  C   C202      1.0  0.76104  0.35025  0.34790  1.0000
  C   C203      1.0  0.76260  0.36774  0.42727  1.0000
  C   C204      1.0  0.76352  0.39844  0.42134  1.0000
  H   H86       1.0  0.76175  0.40906  0.47973  1.0000
  N   N32       1.0  0.76042  0.35273  0.51161  1.0000
  O   O81       1.0  0.78518  0.37042  0.55959  1.0000
  O   O82       1.0  0.73485  0.34715  0.55375  1.0000
  C   C205      1.0  0.65929  0.41278  0.34818  1.0000
  C   C206      1.0  0.64189  0.39690  0.42768  1.0000
  C   C207      1.0  0.61126  0.36706  0.42189  1.0000
  H   H87       1.0  0.60061  0.35472  0.48035  1.0000
  N   N33       1.0  0.65694  0.40985  0.51192  1.0000
  O   O83       1.0  0.63920  0.41686  0.55989  1.0000
  O   O84       1.0  0.66261  0.38993  0.55414  1.0000
  C   C208      1.0  0.91468  0.25920  0.34833  1.0000
  C   C209      1.0  0.89866  0.26060  0.42768  1.0000
  C   C210      1.0  0.86883  0.26138  0.42160  1.0000
  H   H88       1.0  0.85643  0.25964  0.47998  1.0000
  N   N34       1.0  0.91147  0.25837  0.51203  1.0000
  O   O85       1.0  0.91841  0.28306  0.56019  1.0000
  O   O86       1.0  0.89149  0.23272  0.55392  1.0000
  C   C211      1.0  0.75040  0.15733  0.34808  1.0000
  C   C212      1.0  0.74908  0.14005  0.42767  1.0000
  C   C213      1.0  0.74822  0.10938  0.42172  1.0000
  H   H89       1.0  0.75008  0.09882  0.48016  1.0000
  N   N35       1.0  0.75137  0.15514  0.51197  1.0000
  O   O87       1.0  0.72671  0.13744  0.56026  1.0000
  O   O88       1.0  0.77703  0.16080  0.55378  1.0000
  C   C214      1.0  0.85223  0.09506  0.34813  1.0000
  C   C215      1.0  0.86960  0.11109  0.42758  1.0000
  C   C216      1.0  0.90031  0.14084  0.42150  1.0000
  H   H90       1.0  0.91091  0.15332  0.47983  1.0000
  N   N36       1.0  0.85456  0.09837  0.51198  1.0000
  O   O89       1.0  0.87224  0.09137  0.56026  1.0000
  O   O90       1.0  0.84898  0.11844  0.55374  1.0000
  C   C217      1.0  0.98787  0.74444  0.33987  1.0000
  C   C218      1.0  0.93373  0.69115  0.33963  1.0000
  C   C219      1.0  0.96860  0.70903  0.32921  1.0000
  C   C220      1.0  0.52374  0.76325  0.33992  1.0000
  C   C221      1.0  0.54300  0.79867  0.32958  1.0000
  C   C222      1.0  0.57787  0.81656  0.34009  1.0000
  O   O91       1.0  0.98153  0.69012  0.30158  1.0000
  O   O92       1.0  0.53008  0.81761  0.30207  1.0000
  H   H91       1.0  0.98617  0.69451  0.23703  1.0000
  H   H92       1.0  0.52545  0.81325  0.23749  1.0000
  C   C223      1.0  0.76515  0.74528  0.34004  1.0000
  C   C224      1.0  0.81844  0.74444  0.33979  1.0000
  C   C225      1.0  0.80056  0.76142  0.32944  1.0000
  C   C226      1.0  0.74632  0.76232  0.34000  1.0000
  C   C227      1.0  0.71092  0.74616  0.32933  1.0000
  C   C228      1.0  0.69302  0.76315  0.33945  1.0000
  O   O93       1.0  0.81948  0.79331  0.30211  1.0000
  O   O94       1.0  0.69201  0.71430  0.30178  1.0000
  H   H93       1.0  0.81515  0.79361  0.23753  1.0000
  H   H94       1.0  0.69641  0.71404  0.23724  1.0000
  C   C229      1.0  0.76432  0.52182  0.34001  1.0000
  C   C230      1.0  0.76511  0.57593  0.34008  1.0000
  C   C231      1.0  0.74816  0.54107  0.32947  1.0000
  C   C232      1.0  0.74726  0.98594  0.33993  1.0000
  C   C233      1.0  0.76340  0.96668  0.32937  1.0000
  C   C234      1.0  0.74638  0.93180  0.33952  1.0000
  O   O95       1.0  0.71632  0.52812  0.30174  1.0000
  O   O96       1.0  0.79527  0.97961  0.30195  1.0000
  H   H95       1.0  0.71611  0.52350  0.23718  1.0000
  H   H96       1.0  0.79556  0.98426  0.23739  1.0000
  C   C235      1.0  0.65811  0.74805  0.33794  1.0000
  C   C236      1.0  0.64224  0.74962  0.25844  1.0000
  C   C237      1.0  0.61176  0.74912  0.26434  1.0000
  H   H97       1.0  0.60230  0.75317  0.20673  1.0000
  N   N37       1.0  0.65875  0.75476  0.17502  1.0000
  O   O97       1.0  0.64172  0.73216  0.12013  1.0000
  O   O98       1.0  0.66560  0.78201  0.14062  1.0000
  C   C238      1.0  0.76142  0.91195  0.33811  1.0000
  C   C239      1.0  0.75975  0.89441  0.25866  1.0000
  C   C240      1.0  0.76032  0.86446  0.26445  1.0000
  H   H98       1.0  0.75613  0.85094  0.20679  1.0000
  N   N38       1.0  0.75445  0.90569  0.17529  1.0000
  O   O99       1.0  0.77698  0.91127  0.12014  1.0000
  O   O100      1.0  0.72716  0.88524  0.14119  1.0000
  C   C241      1.0  0.59771  0.85145  0.33873  1.0000
  C   C242      1.0  0.61516  0.86725  0.25909  1.0000
  C   C243      1.0  0.64509  0.89779  0.26473  1.0000
  H   H99       1.0  0.65859  0.90712  0.20703  1.0000
  N   N39       1.0  0.60384  0.85064  0.17578  1.0000
  O   O101      1.0  0.59821  0.86757  0.12064  1.0000
  O   O102      1.0  0.62428  0.84381  0.14159  1.0000
  C   C244      1.0  0.85333  0.75950  0.33827  1.0000
  C   C245      1.0  0.86929  0.75793  0.25891  1.0000
  C   C246      1.0  0.89980  0.75848  0.26479  1.0000
  H   H100      1.0  0.90928  0.75447  0.20713  1.0000
  N   N40       1.0  0.85279  0.75273  0.17547  1.0000
  O   O103      1.0  0.86979  0.77532  0.12051  1.0000
  O   O104      1.0  0.84597  0.72547  0.14117  1.0000
  C   C247      1.0  0.75002  0.59574  0.33836  1.0000
  C   C248      1.0  0.75151  0.61314  0.25885  1.0000
  C   C249      1.0  0.75096  0.64310  0.26458  1.0000
  H   H101      1.0  0.75496  0.65658  0.20691  1.0000
  N   N41       1.0  0.75665  0.60175  0.17547  1.0000
  O   O105      1.0  0.73402  0.59612  0.12060  1.0000
  O   O106      1.0  0.78388  0.62216  0.14100  1.0000
  C   C250      1.0  0.91390  0.65625  0.33807  1.0000
  C   C251      1.0  0.89643  0.64028  0.25867  1.0000
  C   C252      1.0  0.86648  0.60977  0.26457  1.0000
  H   H102      1.0  0.85296  0.60034  0.20696  1.0000
  N   N42       1.0  0.90777  0.65678  0.17524  1.0000
  O   O107      1.0  0.91338  0.63977  0.12035  1.0000
  O   O108      1.0  0.88735  0.66360  0.14084  1.0000
  C   C253      1.0  0.96860  0.76023  0.35226  1.0000
  C   C254      1.0  0.93377  0.74338  0.35024  1.0000
  C   C255      1.0  0.91679  0.70878  0.34731  1.0000
  H   H103      1.0  0.97942  0.78469  0.36632  1.0000
  H   H104      1.0  0.89142  0.69616  0.34912  1.0000
  C   C256      1.0  0.59481  0.79893  0.34768  1.0000
  C   C257      1.0  0.57785  0.76433  0.35042  1.0000
  C   C258      1.0  0.54301  0.74745  0.35203  1.0000
  H   H105      1.0  0.62018  0.81155  0.34960  1.0000
  H   H106      1.0  0.53219  0.72297  0.36581  1.0000
  C   C259      1.0  0.74936  0.71022  0.35227  1.0000
  C   C260      1.0  0.76621  0.69223  0.35033  1.0000
  C   C261      1.0  0.80081  0.70986  0.34733  1.0000
  H   H107      1.0  0.72489  0.69657  0.36634  1.0000
  H   H108      1.0  0.81343  0.69711  0.34910  1.0000
  C   C262      1.0  0.71064  0.79772  0.34692  1.0000
  C   C263      1.0  0.74525  0.81536  0.35002  1.0000
  C   C264      1.0  0.76210  0.79738  0.35232  1.0000
  H   H109      1.0  0.69802  0.81046  0.34860  1.0000
  H   H110      1.0  0.78656  0.81103  0.36638  1.0000
  C   C265      1.0  0.79938  0.54110  0.35228  1.0000
  C   C266      1.0  0.81733  0.57594  0.35068  1.0000
  C   C267      1.0  0.79968  0.59288  0.34777  1.0000
  H   H111      1.0  0.81305  0.53028  0.36604  1.0000
  H   H112      1.0  0.81242  0.61825  0.34955  1.0000
  C   C268      1.0  0.71180  0.91487  0.34699  1.0000
  C   C269      1.0  0.69419  0.93185  0.35002  1.0000
  C   C270      1.0  0.71220  0.96669  0.35224  1.0000
  H   H113      1.0  0.69905  0.88950  0.34882  1.0000
  H   H114      1.0  0.69857  0.97752  0.36645  1.0000
  C   C271      1.0  0.59697  0.74855  0.34785  1.0000
  C   C272      1.0  0.61294  0.74712  0.42735  1.0000
  C   C273      1.0  0.64271  0.74619  0.42135  1.0000
  H   H115      1.0  0.65513  0.74800  0.47973  1.0000
  N   N43       1.0  0.60015  0.74937  0.51173  1.0000
  O   O109      1.0  0.59313  0.72465  0.55985  1.0000
  O   O110      1.0  0.62018  0.77498  0.55369  1.0000
  C   C274      1.0  0.76104  0.85025  0.34790  1.0000
  C   C275      1.0  0.76260  0.86774  0.42727  1.0000
  C   C276      1.0  0.76353  0.89844  0.42134  1.0000
  H   H116      1.0  0.76175  0.90906  0.47973  1.0000
  N   N44       1.0  0.76042  0.85273  0.51161  1.0000
  O   O111      1.0  0.78518  0.87042  0.55959  1.0000
  O   O112      1.0  0.73485  0.84715  0.55375  1.0000
  C   C277      1.0  0.65929  0.91278  0.34818  1.0000
  C   C278      1.0  0.64189  0.89691  0.42768  1.0000
  C   C279      1.0  0.61126  0.86706  0.42189  1.0000
  H   H117      1.0  0.60061  0.85473  0.48035  1.0000
  N   N45       1.0  0.65694  0.90985  0.51192  1.0000
  O   O113      1.0  0.63920  0.91687  0.55989  1.0000
  O   O114      1.0  0.66261  0.88993  0.55414  1.0000
  C   C280      1.0  0.91468  0.75920  0.34833  1.0000
  C   C281      1.0  0.89867  0.76060  0.42768  1.0000
  C   C282      1.0  0.86883  0.76138  0.42160  1.0000
  H   H118      1.0  0.85642  0.75964  0.47998  1.0000
  N   N46       1.0  0.91147  0.75837  0.51203  1.0000
  O   O115      1.0  0.91841  0.78306  0.56019  1.0000
  O   O116      1.0  0.89149  0.73272  0.55392  1.0000
  C   C283      1.0  0.75040  0.65733  0.34808  1.0000
  C   C284      1.0  0.74908  0.64005  0.42767  1.0000
  C   C285      1.0  0.74822  0.60938  0.42172  1.0000
  H   H119      1.0  0.75008  0.59882  0.48016  1.0000
  N   N47       1.0  0.75137  0.65514  0.51197  1.0000
  O   O117      1.0  0.72670  0.63744  0.56026  1.0000
  O   O118      1.0  0.77703  0.66080  0.55378  1.0000
  C   C286      1.0  0.85223  0.59506  0.34813  1.0000
  C   C287      1.0  0.86960  0.61109  0.42758  1.0000
  C   C288      1.0  0.90031  0.64084  0.42150  1.0000
  H   H120      1.0  0.91091  0.65332  0.47983  1.0000
  N   N48       1.0  0.85456  0.59837  0.51198  1.0000
  O   O119      1.0  0.87224  0.59137  0.56026  1.0000
  O   O120      1.0  0.84898  0.61844  0.55374  1.0000
