data_image0
_chemical_formula_structural       C3NCHNHCNCHNHCNCHNHNCNCNC3O3NCNCNC3O3NC3H3NHNC3H3NHNC3H3NHC3NCHNHCNCHNHCNCHNHNCNCNC3O3NCNCNC3O3NC3H3NHNC3H3NHNC3H3NHC3NCHNHCNCHNHCNCHNHNCNCNC3O3NCNCNC3O3NC3H3NHNC3H3NHNC3H3NHC3NCHNHCNCHNHCNCHNHNCNCNC3O3NCNCNC3O3NC3H3NHNC3H3NHNC3H3NH
_chemical_formula_sum              "C108 N72 H72 O24"
_cell_length_a       43.2312
_cell_length_b       43.2312
_cell_length_c       15.057
_cell_angle_alpha    90
_cell_angle_beta     90
_cell_angle_gamma    120

_space_group_name_H-M_alt    "P 1"
_space_group_IT_number       1

loop_
  _space_group_symop_operation_xyz
  'x, y, z'

loop_
  _atom_site_type_symbol
  _atom_site_label
  _atom_site_symmetry_multiplicity
  _atom_site_fract_x
  _atom_site_fract_y
  _atom_site_fract_z
  _atom_site_occupancy
  C   C1        1.0  0.12803  0.32032  0.26519  1.0000
  C   C2        1.0  0.36640  0.17635  0.42941  1.0000
  C   C3        1.0  0.23315  0.26898  0.31532  1.0000
  N   N1        1.0  0.28093  0.25940  0.35622  1.0000
  C   C4        1.0  0.27004  0.28153  0.32344  1.0000
  H   H1        1.0  0.28871  0.30684  0.30480  1.0000
  N   N2        1.0  0.22075  0.29053  0.28562  1.0000
  H   H2        1.0  0.23870  0.31535  0.27399  1.0000
  C   C5        1.0  0.22629  0.46324  0.31522  1.0000
  N   N3        1.0  0.23588  0.02059  0.35607  1.0000
  C   C6        1.0  0.21375  0.48758  0.32332  1.0000
  H   H3        1.0  0.18844  0.48094  0.30470  1.0000
  N   N4        1.0  0.20474  0.42928  0.28552  1.0000
  H   H4        1.0  0.17991  0.42240  0.27391  1.0000
  C   C7        1.0  0.03203  0.26210  0.31532  1.0000
  N   N5        1.0  0.47468  0.21433  0.35624  1.0000
  C   C8        1.0  0.00769  0.22521  0.32346  1.0000
  H   H5        1.0  0.01433  0.20654  0.30482  1.0000
  N   N6        1.0  0.06599  0.27450  0.28560  1.0000
  H   H6        1.0  0.07286  0.25655  0.27401  1.0000
  N   N7        1.0  0.15293  0.35559  0.26580  1.0000
  C   C9        1.0  0.18849  0.36723  0.26517  1.0000
  N   N8        1.0  0.19887  0.34233  0.26581  1.0000
  C   C10       1.0  0.17495  0.30677  0.26518  1.0000
  N   N9        1.0  0.13967  0.29640  0.26584  1.0000
  C   C11       1.0  0.21402  0.40358  0.27552  1.0000
  C   C12       1.0  0.18577  0.28124  0.27560  1.0000
  C   C13       1.0  0.09168  0.30949  0.27557  1.0000
  O   O1        1.0  0.15939  0.24666  0.28241  1.0000
  O   O2        1.0  0.08346  0.33585  0.28235  1.0000
  O   O3        1.0  0.24860  0.41179  0.28230  1.0000
  N   N10       1.0  0.34183  0.14098  0.42874  1.0000
  C   C14       1.0  0.30616  0.12887  0.42929  1.0000
  N   N11       1.0  0.29536  0.15344  0.42874  1.0000
  C   C15       1.0  0.31892  0.18911  0.42938  1.0000
  N   N12       1.0  0.35429  0.19992  0.42883  1.0000
  C   C16       1.0  0.28100  0.09234  0.41990  1.0000
  C   C17       1.0  0.30756  0.21428  0.42006  1.0000
  C   C18       1.0  0.40293  0.18771  0.42008  1.0000
  O   O4        1.0  0.33357  0.24899  0.41291  1.0000
  O   O5        1.0  0.41162  0.16169  0.41278  1.0000
  O   O6        1.0  0.24629  0.08364  0.41270  1.0000
  N   N13       1.0  0.21095  0.23499  0.34336  1.0000
  C   C19       1.0  0.22144  0.21251  0.37678  1.0000
  C   C20       1.0  0.25872  0.22525  0.38378  1.0000
  C   C21       1.0  0.19310  0.17653  0.40447  1.0000
  H   H7        1.0  0.16654  0.17312  0.39492  1.0000
  H   H8        1.0  0.19620  0.17247  0.47474  1.0000
  H   H9        1.0  0.19481  0.15619  0.36535  1.0000
  N   N14       1.0  0.27235  0.20446  0.41198  1.0000
  H   H10       1.0  0.25517  0.17955  0.42407  1.0000
  N   N15       1.0  0.26029  0.47502  0.34320  1.0000
  C   C22       1.0  0.28278  0.00800  0.37660  1.0000
  C   C23       1.0  0.27003  0.03254  0.38360  1.0000
  C   C24       1.0  0.31877  0.01565  0.40425  1.0000
  H   H11       1.0  0.32217  0.99249  0.39469  1.0000
  H   H12       1.0  0.32284  0.02281  0.47451  1.0000
  H   H13       1.0  0.33909  0.03770  0.36510  1.0000
  N   N16       1.0  0.29083  0.06696  0.41180  1.0000
  H   H14       1.0  0.31573  0.07469  0.42390  1.0000
  N   N17       1.0  0.02025  0.28430  0.34335  1.0000
  C   C25       1.0  0.48728  0.27382  0.37679  1.0000
  C   C26       1.0  0.46274  0.23654  0.38380  1.0000
  C   C27       1.0  0.47963  0.30216  0.40448  1.0000
  H   H15       1.0  0.50280  0.32873  0.39491  1.0000
  H   H16       1.0  0.47249  0.29907  0.47475  1.0000
  H   H17       1.0  0.45759  0.30045  0.36536  1.0000
  N   N18       1.0  0.42833  0.22292  0.41201  1.0000
  H   H18       1.0  0.42060  0.24010  0.42413  1.0000
  C   C28       1.0  0.12803  0.82032  0.26519  1.0000
  C   C29       1.0  0.36640  0.67635  0.42941  1.0000
  C   C30       1.0  0.23315  0.76898  0.31532  1.0000
  N   N19       1.0  0.28093  0.75940  0.35622  1.0000
  C   C31       1.0  0.27004  0.78153  0.32344  1.0000
  H   H19       1.0  0.28871  0.80684  0.30480  1.0000
  N   N20       1.0  0.22075  0.79053  0.28562  1.0000
  H   H20       1.0  0.23870  0.81535  0.27399  1.0000
  C   C32       1.0  0.22629  0.96323  0.31522  1.0000
  N   N21       1.0  0.23588  0.52059  0.35607  1.0000
  C   C33       1.0  0.21375  0.98758  0.32332  1.0000
  H   H21       1.0  0.18844  0.98094  0.30470  1.0000
  N   N22       1.0  0.20474  0.92928  0.28552  1.0000
  H   H22       1.0  0.17991  0.92240  0.27391  1.0000
  C   C34       1.0  0.03203  0.76210  0.31532  1.0000
  N   N23       1.0  0.47468  0.71433  0.35624  1.0000
  C   C35       1.0  0.00769  0.72521  0.32346  1.0000
  H   H23       1.0  0.01433  0.70654  0.30482  1.0000
  N   N24       1.0  0.06599  0.77450  0.28560  1.0000
  H   H24       1.0  0.07286  0.75655  0.27401  1.0000
  N   N25       1.0  0.15293  0.85559  0.26580  1.0000
  C   C36       1.0  0.18849  0.86722  0.26517  1.0000
  N   N26       1.0  0.19887  0.84233  0.26581  1.0000
  C   C37       1.0  0.17495  0.80677  0.26518  1.0000
  N   N27       1.0  0.13967  0.79639  0.26584  1.0000
  C   C38       1.0  0.21402  0.90358  0.27552  1.0000
  C   C39       1.0  0.18577  0.78124  0.27560  1.0000
  C   C40       1.0  0.09168  0.80948  0.27557  1.0000
  O   O7        1.0  0.15939  0.74666  0.28241  1.0000
  O   O8        1.0  0.08346  0.83585  0.28235  1.0000
  O   O9        1.0  0.24860  0.91179  0.28230  1.0000
  N   N28       1.0  0.34183  0.64098  0.42874  1.0000
  C   C41       1.0  0.30616  0.62887  0.42929  1.0000
  N   N29       1.0  0.29535  0.65344  0.42874  1.0000
  C   C42       1.0  0.31892  0.68911  0.42938  1.0000
  N   N30       1.0  0.35429  0.69992  0.42883  1.0000
  C   C43       1.0  0.28100  0.59234  0.41990  1.0000
  C   C44       1.0  0.30756  0.71428  0.42006  1.0000
  C   C45       1.0  0.40293  0.68771  0.42008  1.0000
  O   O10       1.0  0.33357  0.74899  0.41291  1.0000
  O   O11       1.0  0.41162  0.66169  0.41278  1.0000
  O   O12       1.0  0.24629  0.58364  0.41270  1.0000
  N   N31       1.0  0.21096  0.73499  0.34336  1.0000
  C   C46       1.0  0.22144  0.71251  0.37678  1.0000
  C   C47       1.0  0.25872  0.72525  0.38378  1.0000
  C   C48       1.0  0.19310  0.67653  0.40447  1.0000
  H   H25       1.0  0.16654  0.67312  0.39492  1.0000
  H   H26       1.0  0.19620  0.67247  0.47474  1.0000
  H   H27       1.0  0.19481  0.65619  0.36535  1.0000
  N   N32       1.0  0.27235  0.70446  0.41198  1.0000
  H   H28       1.0  0.25517  0.67955  0.42407  1.0000
  N   N33       1.0  0.26028  0.97502  0.34320  1.0000
  C   C49       1.0  0.28278  0.50799  0.37660  1.0000
  C   C50       1.0  0.27003  0.53254  0.38360  1.0000
  C   C51       1.0  0.31877  0.51565  0.40425  1.0000
  H   H29       1.0  0.32217  0.49249  0.39469  1.0000
  H   H30       1.0  0.32284  0.52281  0.47451  1.0000
  H   H31       1.0  0.33909  0.53770  0.36510  1.0000
  N   N34       1.0  0.29083  0.56695  0.41180  1.0000
  H   H32       1.0  0.31573  0.57468  0.42390  1.0000
  N   N35       1.0  0.02025  0.78430  0.34335  1.0000
  C   C52       1.0  0.48728  0.77382  0.37679  1.0000
  C   C53       1.0  0.46274  0.73654  0.38380  1.0000
  C   C54       1.0  0.47963  0.80216  0.40448  1.0000
  H   H33       1.0  0.50280  0.82873  0.39491  1.0000
  H   H34       1.0  0.47249  0.79907  0.47475  1.0000
  H   H35       1.0  0.45759  0.80045  0.36536  1.0000
  N   N36       1.0  0.42833  0.72292  0.41201  1.0000
  H   H36       1.0  0.42060  0.74010  0.42413  1.0000
  C   C55       1.0  0.62803  0.32032  0.26519  1.0000
  C   C56       1.0  0.86640  0.17635  0.42941  1.0000
  C   C57       1.0  0.73315  0.26898  0.31532  1.0000
  N   N37       1.0  0.78093  0.25940  0.35622  1.0000
  C   C58       1.0  0.77004  0.28153  0.32344  1.0000
  H   H37       1.0  0.78871  0.30684  0.30480  1.0000
  N   N38       1.0  0.72075  0.29053  0.28562  1.0000
  H   H38       1.0  0.73870  0.31535  0.27399  1.0000
  C   C59       1.0  0.72630  0.46324  0.31522  1.0000
  N   N39       1.0  0.73588  0.02059  0.35607  1.0000
  C   C60       1.0  0.71374  0.48758  0.32332  1.0000
  H   H39       1.0  0.68844  0.48094  0.30470  1.0000
  N   N40       1.0  0.70474  0.42928  0.28552  1.0000
  H   H40       1.0  0.67991  0.42240  0.27391  1.0000
  C   C61       1.0  0.53203  0.26210  0.31532  1.0000
  N   N41       1.0  0.97468  0.21433  0.35624  1.0000
  C   C62       1.0  0.50769  0.22521  0.32346  1.0000
  H   H41       1.0  0.51433  0.20654  0.30482  1.0000
  N   N42       1.0  0.56599  0.27450  0.28560  1.0000
  H   H42       1.0  0.57286  0.25655  0.27401  1.0000
  N   N43       1.0  0.65293  0.35559  0.26580  1.0000
  C   C63       1.0  0.68849  0.36723  0.26517  1.0000
  N   N44       1.0  0.69887  0.34233  0.26581  1.0000
  C   C64       1.0  0.67495  0.30677  0.26518  1.0000
  N   N45       1.0  0.63967  0.29640  0.26584  1.0000
  C   C65       1.0  0.71401  0.40358  0.27552  1.0000
  C   C66       1.0  0.68577  0.28124  0.27560  1.0000
  C   C67       1.0  0.59168  0.30949  0.27557  1.0000
  O   O13       1.0  0.65939  0.24666  0.28241  1.0000
  O   O14       1.0  0.58346  0.33585  0.28235  1.0000
  O   O15       1.0  0.74860  0.41179  0.28230  1.0000
  N   N46       1.0  0.84183  0.14098  0.42874  1.0000
  C   C68       1.0  0.80616  0.12887  0.42929  1.0000
  N   N47       1.0  0.79536  0.15344  0.42874  1.0000
  C   C69       1.0  0.81892  0.18911  0.42938  1.0000
  N   N48       1.0  0.85429  0.19992  0.42883  1.0000
  C   C70       1.0  0.78100  0.09234  0.41990  1.0000
  C   C71       1.0  0.80756  0.21428  0.42006  1.0000
  C   C72       1.0  0.90293  0.18771  0.42008  1.0000
  O   O16       1.0  0.83357  0.24899  0.41291  1.0000
  O   O17       1.0  0.91162  0.16169  0.41278  1.0000
  O   O18       1.0  0.74629  0.08364  0.41270  1.0000
  N   N49       1.0  0.71096  0.23499  0.34336  1.0000
  C   C73       1.0  0.72144  0.21251  0.37678  1.0000
  C   C74       1.0  0.75872  0.22525  0.38378  1.0000
  C   C75       1.0  0.69310  0.17653  0.40447  1.0000
  H   H43       1.0  0.66654  0.17312  0.39492  1.0000
  H   H44       1.0  0.69620  0.17247  0.47474  1.0000
  H   H45       1.0  0.69481  0.15619  0.36535  1.0000
  N   N50       1.0  0.77234  0.20446  0.41198  1.0000
  H   H46       1.0  0.75517  0.17955  0.42407  1.0000
  N   N51       1.0  0.76029  0.47502  0.34320  1.0000
  C   C76       1.0  0.78278  0.00800  0.37660  1.0000
  C   C77       1.0  0.77003  0.03254  0.38360  1.0000
  C   C78       1.0  0.81877  0.01565  0.40425  1.0000
  H   H47       1.0  0.82217  0.99249  0.39469  1.0000
  H   H48       1.0  0.82284  0.02281  0.47451  1.0000
  H   H49       1.0  0.83910  0.03770  0.36510  1.0000
  N   N52       1.0  0.79083  0.06696  0.41180  1.0000
  H   H50       1.0  0.81573  0.07469  0.42390  1.0000
  N   N53       1.0  0.52025  0.28430  0.34335  1.0000
  C   C79       1.0  0.98728  0.27382  0.37679  1.0000
  C   C80       1.0  0.96274  0.23654  0.38380  1.0000
  C   C81       1.0  0.97963  0.30216  0.40448  1.0000
  H   H51       1.0  0.00280  0.32873  0.39491  1.0000
  H   H52       1.0  0.97249  0.29907  0.47475  1.0000
  H   H53       1.0  0.95759  0.30045  0.36536  1.0000
  N   N54       1.0  0.92833  0.22292  0.41201  1.0000
  H   H54       1.0  0.92060  0.24010  0.42413  1.0000
  C   C82       1.0  0.62803  0.82032  0.26519  1.0000
  C   C83       1.0  0.86640  0.67635  0.42941  1.0000
  C   C84       1.0  0.73315  0.76898  0.31532  1.0000
  N   N55       1.0  0.78093  0.75940  0.35622  1.0000
  C   C85       1.0  0.77004  0.78153  0.32344  1.0000
  H   H55       1.0  0.78871  0.80684  0.30480  1.0000
  N   N56       1.0  0.72075  0.79053  0.28562  1.0000
  H   H56       1.0  0.73870  0.81535  0.27399  1.0000
  C   C86       1.0  0.72629  0.96323  0.31522  1.0000
  N   N57       1.0  0.73588  0.52059  0.35607  1.0000
  C   C87       1.0  0.71375  0.98758  0.32332  1.0000
  H   H57       1.0  0.68844  0.98094  0.30470  1.0000
  N   N58       1.0  0.70474  0.92928  0.28552  1.0000
  H   H58       1.0  0.67992  0.92240  0.27391  1.0000
  C   C88       1.0  0.53203  0.76210  0.31532  1.0000
  N   N59       1.0  0.97468  0.71433  0.35624  1.0000
  C   C89       1.0  0.50769  0.72521  0.32346  1.0000
  H   H59       1.0  0.51433  0.70654  0.30482  1.0000
  N   N60       1.0  0.56598  0.77450  0.28560  1.0000
  H   H60       1.0  0.57286  0.75655  0.27401  1.0000
  N   N61       1.0  0.65293  0.85559  0.26580  1.0000
  C   C90       1.0  0.68849  0.86722  0.26517  1.0000
  N   N62       1.0  0.69887  0.84233  0.26581  1.0000
  C   C91       1.0  0.67495  0.80677  0.26518  1.0000
  N   N63       1.0  0.63967  0.79639  0.26584  1.0000
  C   C92       1.0  0.71402  0.90358  0.27552  1.0000
  C   C93       1.0  0.68577  0.78124  0.27560  1.0000
  C   C94       1.0  0.59168  0.80948  0.27557  1.0000
  O   O19       1.0  0.65939  0.74666  0.28241  1.0000
  O   O20       1.0  0.58346  0.83585  0.28235  1.0000
  O   O21       1.0  0.74860  0.91179  0.28230  1.0000
  N   N64       1.0  0.84183  0.64098  0.42874  1.0000
  C   C95       1.0  0.80616  0.62887  0.42929  1.0000
  N   N65       1.0  0.79536  0.65344  0.42874  1.0000
  C   C96       1.0  0.81892  0.68911  0.42938  1.0000
  N   N66       1.0  0.85429  0.69992  0.42883  1.0000
  C   C97       1.0  0.78100  0.59234  0.41990  1.0000
  C   C98       1.0  0.80756  0.71428  0.42006  1.0000
  C   C99       1.0  0.90293  0.68771  0.42008  1.0000
  O   O22       1.0  0.83357  0.74899  0.41291  1.0000
  O   O23       1.0  0.91162  0.66169  0.41278  1.0000
  O   O24       1.0  0.74629  0.58364  0.41270  1.0000
  N   N67       1.0  0.71096  0.73499  0.34336  1.0000
  C   C100      1.0  0.72144  0.71251  0.37678  1.0000
  C   C101      1.0  0.75872  0.72525  0.38378  1.0000
  C   C102      1.0  0.69310  0.67653  0.40447  1.0000
  H   H61       1.0  0.66654  0.67312  0.39492  1.0000
  H   H62       1.0  0.69620  0.67247  0.47474  1.0000
  H   H63       1.0  0.69481  0.65619  0.36535  1.0000
  N   N68       1.0  0.77234  0.70446  0.41198  1.0000
  H   H64       1.0  0.75517  0.67955  0.42407  1.0000
  N   N69       1.0  0.76028  0.97502  0.34320  1.0000
  C   C103      1.0  0.78277  0.50799  0.37660  1.0000
  C   C104      1.0  0.77003  0.53254  0.38360  1.0000
  C   C105      1.0  0.81877  0.51565  0.40425  1.0000
  H   H65       1.0  0.82217  0.49249  0.39469  1.0000
  H   H66       1.0  0.82284  0.52281  0.47451  1.0000
  H   H67       1.0  0.83909  0.53770  0.36510  1.0000
  N   N70       1.0  0.79083  0.56695  0.41180  1.0000
  H   H68       1.0  0.81573  0.57468  0.42390  1.0000
  N   N71       1.0  0.52025  0.78430  0.34335  1.0000
  C   C106      1.0  0.98728  0.77382  0.37679  1.0000
  C   C107      1.0  0.96274  0.73654  0.38380  1.0000
  C   C108      1.0  0.97964  0.80216  0.40448  1.0000
  H   H69       1.0  0.00280  0.82873  0.39491  1.0000
  H   H70       1.0  0.97249  0.79907  0.47475  1.0000
  H   H71       1.0  0.95759  0.80045  0.36536  1.0000
  N   N72       1.0  0.92833  0.72292  0.41201  1.0000
  H   H72       1.0  0.92060  0.74010  0.42413  1.0000
