data_image0
_chemical_formula_structural       C4NC2NHOHC4NC2NHOHC2H2CH3C2H2CH3C2H2CH3C2H2CH3C4NC2NHOHC4NC2NHOC4NC2NHOHC4NC2NHOC2H2CH2C2H2CH3C2H2CH2C2H2CH3C4NC2NHOHC4NC2NHOHC4NC2NHOHC4NC2NHOHCNCNCNCNCNCNCNCNCNCNCNCNCNCNCNCNCNCNCNCNCNCNCNCNCNCNCNCNCNCNCNCNCNCNCNCNC2H2CH2C2H2CH2C4NC2NHOC4NC2NHOC4NC2NHOC4NC2NHOC2H2CH2C2H2CH3C2H2CH2C2H2CH3C4NC2NHOHC4NC2NHOC4NC2NHOHC4NC2NHOC2H2CH2C2H2CH2C2H2CH2C2H2CH2
_chemical_formula_sum              "C198 N72 H108 O18"
_cell_length_a       34.0549
_cell_length_b       33.8941
_cell_length_c       14.8869
_cell_angle_alpha    90
_cell_angle_beta     90
_cell_angle_gamma    90.2785

_space_group_name_H-M_alt    "P 1"
_space_group_IT_number       1

loop_
  _space_group_symop_operation_xyz
  'x, y, z'

loop_
  _atom_site_type_symbol
  _atom_site_label
  _atom_site_symmetry_multiplicity
  _atom_site_fract_x
  _atom_site_fract_y
  _atom_site_fract_z
  _atom_site_occupancy
  C   C1        1.0  0.02930  0.47383  0.33269  1.0000
  C   C2        1.0  0.02921  0.50480  0.26852  1.0000
  C   C3        1.0  0.99964  0.53450  0.27014  1.0000
  C   C4        1.0  0.96916  0.53353  0.33497  1.0000
  N   N1        1.0  0.00038  0.56258  0.20470  1.0000
  C   C5        1.0  0.02740  0.56355  0.13795  1.0000
  C   C6        1.0  0.05571  0.53359  0.13421  1.0000
  N   N2        1.0  0.05573  0.50585  0.20005  1.0000
  H   H1        1.0  0.02624  0.58504  0.08996  1.0000
  O   O1        1.0  0.08255  0.53250  0.06618  1.0000
  H   H2        1.0  0.07260  0.47395  0.02541  1.0000
  C   C7        1.0  0.53004  0.03367  0.32750  1.0000
  C   C8        1.0  0.52903  0.00366  0.26123  1.0000
  C   C9        1.0  0.49935  0.97378  0.26279  1.0000
  C   C10       1.0  0.46962  0.97388  0.32955  1.0000
  N   N3        1.0  0.49915  0.94670  0.19522  1.0000
  C   C11       1.0  0.52526  0.94696  0.12655  1.0000
  C   C12       1.0  0.55348  0.97732  0.12283  1.0000
  N   N4        1.0  0.55448  0.00409  0.19066  1.0000
  H   H3        1.0  0.52316  0.92644  0.07655  1.0000
  O   O2        1.0  0.57821  0.98098  0.05102  1.0000
  H   H4        1.0  0.56075  0.03762  0.01038  1.0000
  C   C13       1.0  0.08439  0.30963  0.29023  1.0000
  C   C14       1.0  0.07631  0.26894  0.29353  1.0000
  H   H5        1.0  0.08833  0.25121  0.24517  1.0000
  H   H6        1.0  0.10222  0.31996  0.23995  1.0000
  C   C15       1.0  0.00680  0.26047  0.03825  1.0000
  H   H7        1.0  0.98918  0.24989  0.09445  1.0000
  H   H8        1.0  0.02475  0.28513  0.06236  1.0000
  H   H9        1.0  0.02590  0.23649  0.01640  1.0000
  C   C16       1.0  0.91390  0.69877  0.29273  1.0000
  C   C17       1.0  0.92232  0.73942  0.29768  1.0000
  H   H10       1.0  0.90914  0.75779  0.25229  1.0000
  H   H11       1.0  0.89468  0.68915  0.24446  1.0000
  C   C18       1.0  0.00169  0.74293  0.03267  1.0000
  H   H12       1.0  0.02073  0.75265  0.08722  1.0000
  H   H13       1.0  0.98385  0.71834  0.05761  1.0000
  H   H14       1.0  0.98256  0.76744  0.01425  1.0000
  C   C19       1.0  0.69486  0.08907  0.28282  1.0000
  C   C20       1.0  0.73532  0.08095  0.28696  1.0000
  H   H15       1.0  0.75344  0.09410  0.24083  1.0000
  H   H16       1.0  0.68511  0.10806  0.23428  1.0000
  C   C21       1.0  0.73906  0.00360  0.02590  1.0000
  H   H17       1.0  0.74902  0.98485  0.08069  1.0000
  H   H18       1.0  0.71383  0.02038  0.05011  1.0000
  H   H19       1.0  0.76289  0.02393  0.00846  1.0000
  C   C22       1.0  0.31631  0.96510  0.30237  1.0000
  C   C23       1.0  0.27592  0.97387  0.30264  1.0000
  H   H20       1.0  0.26554  0.99316  0.25543  1.0000
  H   H21       1.0  0.33377  0.97832  0.25503  1.0000
  C   C24       1.0  0.22528  0.90072  0.02545  1.0000
  H   H22       1.0  0.20612  0.88657  0.07461  1.0000
  H   H23       1.0  0.21034  0.92695  0.00011  1.0000
  H   H24       1.0  0.25237  0.90952  0.05959  1.0000
  C   C25       1.0  0.44664  0.75256  0.32200  1.0000
  C   C26       1.0  0.46311  0.77899  0.25839  1.0000
  C   C27       1.0  0.45515  0.82026  0.26294  1.0000
  C   C28       1.0  0.43016  0.83576  0.33046  1.0000
  N   N5        1.0  0.47056  0.84384  0.19766  1.0000
  C   C29       1.0  0.49267  0.83014  0.12884  1.0000
  C   C30       1.0  0.49941  0.78935  0.12250  1.0000
  N   N6        1.0  0.48474  0.76555  0.18788  1.0000
  H   H25       1.0  0.50295  0.84912  0.08094  1.0000
  O   O3        1.0  0.51953  0.77385  0.05155  1.0000
  H   H26       1.0  0.47492  0.73734  0.00027  1.0000
  C   C31       1.0  0.55229  0.25471  0.31968  1.0000
  C   C32       1.0  0.53568  0.22855  0.25565  1.0000
  C   C33       1.0  0.54365  0.18728  0.25931  1.0000
  C   C34       1.0  0.56886  0.17158  0.32600  1.0000
  N   N7        1.0  0.52809  0.16387  0.19392  1.0000
  C   C35       1.0  0.50582  0.17776  0.12562  1.0000
  C   C36       1.0  0.49924  0.21860  0.11978  1.0000
  N   N8        1.0  0.51401  0.24222  0.18540  1.0000
  H   H27       1.0  0.49555  0.15892  0.07742  1.0000
  O   O4        1.0  0.47936  0.23434  0.04873  1.0000
  C   C37       1.0  0.74827  0.55685  0.32280  1.0000
  C   C38       1.0  0.77431  0.53969  0.25976  1.0000
  C   C39       1.0  0.81558  0.54690  0.26498  1.0000
  C   C40       1.0  0.83146  0.57181  0.33250  1.0000
  N   N9        1.0  0.83888  0.53096  0.20027  1.0000
  C   C41       1.0  0.82488  0.50896  0.13126  1.0000
  C   C42       1.0  0.78411  0.50305  0.12402  1.0000
  N   N10       1.0  0.76059  0.51824  0.18891  1.0000
  H   H28       1.0  0.84367  0.49830  0.08374  1.0000
  O   O5        1.0  0.76838  0.48332  0.05248  1.0000
  H   H29       1.0  0.73415  0.52921  0.00004  1.0000
  C   C43       1.0  0.25071  0.45043  0.31759  1.0000
  C   C44       1.0  0.22509  0.46746  0.25347  1.0000
  C   C45       1.0  0.18375  0.46029  0.25714  1.0000
  C   C46       1.0  0.16739  0.43554  0.32434  1.0000
  N   N11       1.0  0.16096  0.47607  0.19133  1.0000
  C   C47       1.0  0.17561  0.49790  0.12272  1.0000
  C   C48       1.0  0.21640  0.50389  0.11715  1.0000
  N   N12       1.0  0.23940  0.48880  0.18309  1.0000
  H   H30       1.0  0.15740  0.50843  0.07408  1.0000
  O   O6        1.0  0.23267  0.52361  0.04623  1.0000
  C   C49       1.0  0.09184  0.08937  0.25751  1.0000
  C   C50       1.0  0.11481  0.05507  0.25689  1.0000
  H   H31       1.0  0.11044  0.03501  0.20636  1.0000
  H   H32       1.0  0.07162  0.09306  0.20730  1.0000
  C   C51       1.0  0.17489  0.05524  0.01104  1.0000
  H   H33       1.0  0.19548  0.04974  0.06563  1.0000
  H   H34       1.0  0.14819  0.06779  0.03990  1.0000
  C   C52       1.0  0.90792  0.91820  0.26710  1.0000
  C   C53       1.0  0.88507  0.95259  0.26666  1.0000
  H   H35       1.0  0.88892  0.97217  0.21494  1.0000
  H   H36       1.0  0.92755  0.91404  0.21585  1.0000
  C   C54       1.0  0.83538  0.95222  0.02923  1.0000
  H   H37       1.0  0.81721  0.95787  0.08803  1.0000
  H   H38       1.0  0.84402  0.98061  0.00034  1.0000
  H   H39       1.0  0.86155  0.93647  0.05174  1.0000
  C   C55       1.0  0.91448  0.09670  0.26034  1.0000
  C   C56       1.0  0.94924  0.11913  0.26258  1.0000
  H   H40       1.0  0.96921  0.11522  0.21192  1.0000
  H   H41       1.0  0.91056  0.07718  0.20852  1.0000
  C   C57       1.0  0.94455  0.16919  0.02573  1.0000
  H   H42       1.0  0.94948  0.18761  0.08465  1.0000
  H   H43       1.0  0.92839  0.14291  0.04741  1.0000
  C   C58       1.0  0.08569  0.91127  0.26909  1.0000
  C   C59       1.0  0.05103  0.88873  0.27206  1.0000
  H   H44       1.0  0.03100  0.89231  0.22141  1.0000
  H   H45       1.0  0.08948  0.93039  0.21644  1.0000
  C   C60       1.0  0.05797  0.83833  0.03557  1.0000
  H   H46       1.0  0.05317  0.81957  0.09399  1.0000
  H   H47       1.0  0.02933  0.84732  0.00973  1.0000
  H   H48       1.0  0.07437  0.86438  0.05773  1.0000
  C   C61       1.0  0.35938  0.54371  0.34091  1.0000
  C   C62       1.0  0.35633  0.57171  0.27054  1.0000
  C   C63       1.0  0.37865  0.60748  0.27329  1.0000
  C   C64       1.0  0.40460  0.61535  0.34563  1.0000
  N   N13       1.0  0.37668  0.63209  0.20119  1.0000
  C   C65       1.0  0.35453  0.62444  0.12758  1.0000
  C   C66       1.0  0.33353  0.58866  0.12331  1.0000
  N   N14       1.0  0.33515  0.56388  0.19492  1.0000
  H   H49       1.0  0.35443  0.64379  0.07500  1.0000
  O   O7        1.0  0.31246  0.57871  0.04855  1.0000
  H   H50       1.0  0.34349  0.52782  0.01230  1.0000
  C   C67       1.0  0.63959  0.46341  0.34298  1.0000
  C   C68       1.0  0.64313  0.43523  0.27312  1.0000
  C   C69       1.0  0.62081  0.39946  0.27560  1.0000
  C   C70       1.0  0.59430  0.39180  0.34699  1.0000
  N   N15       1.0  0.62337  0.37459  0.20406  1.0000
  C   C71       1.0  0.64614  0.38196  0.13130  1.0000
  C   C72       1.0  0.66707  0.41778  0.12714  1.0000
  N   N16       1.0  0.66489  0.44281  0.19821  1.0000
  H   H51       1.0  0.64660  0.36245  0.07904  1.0000
  O   O8        1.0  0.68876  0.42748  0.05312  1.0000
  H   H52       1.0  0.65706  0.47734  0.01270  1.0000
  C   C73       1.0  0.54081  0.64510  0.34270  1.0000
  C   C74       1.0  0.56858  0.64832  0.27211  1.0000
  C   C75       1.0  0.60420  0.62623  0.27472  1.0000
  C   C76       1.0  0.61222  0.60036  0.34717  1.0000
  N   N17       1.0  0.62859  0.62837  0.20242  1.0000
  C   C77       1.0  0.62088  0.65050  0.12878  1.0000
  C   C78       1.0  0.58526  0.67125  0.12466  1.0000
  N   N18       1.0  0.56070  0.66946  0.19645  1.0000
  H   H53       1.0  0.64007  0.65074  0.07607  1.0000
  O   O9        1.0  0.57530  0.69243  0.05008  1.0000
  H   H54       1.0  0.52508  0.66022  0.01305  1.0000
  C   C79       1.0  0.45805  0.36212  0.34236  1.0000
  C   C80       1.0  0.43011  0.35843  0.27220  1.0000
  C   C81       1.0  0.39446  0.38046  0.27461  1.0000
  C   C82       1.0  0.38662  0.40677  0.34636  1.0000
  N   N19       1.0  0.36988  0.37787  0.20273  1.0000
  C   C83       1.0  0.37744  0.35534  0.12964  1.0000
  C   C84       1.0  0.41310  0.33466  0.12562  1.0000
  N   N20       1.0  0.43785  0.33691  0.19701  1.0000
  H   H55       1.0  0.35810  0.35475  0.07723  1.0000
  O   O10       1.0  0.42292  0.31319  0.05138  1.0000
  H   H56       1.0  0.47260  0.34564  0.01184  1.0000
  C   C85       1.0  0.12662  0.42606  0.32862  1.0000
  N   N21       1.0  0.09787  0.45390  0.32561  1.0000
  C   C86       1.0  0.05907  0.44426  0.33461  1.0000
  N   N22       1.0  0.04946  0.40546  0.34617  1.0000
  C   C87       1.0  0.07731  0.37678  0.34747  1.0000
  N   N23       1.0  0.11552  0.38778  0.33890  1.0000
  C   C88       1.0  0.87216  0.58137  0.33701  1.0000
  N   N24       1.0  0.90065  0.55327  0.33505  1.0000
  C   C89       1.0  0.93952  0.56302  0.33841  1.0000
  N   N25       1.0  0.94954  0.60194  0.34367  1.0000
  C   C90       1.0  0.92188  0.63081  0.34573  1.0000
  N   N26       1.0  0.88346  0.61984  0.34219  1.0000
  C   C91       1.0  0.57859  0.13083  0.32960  1.0000
  N   N27       1.0  0.55047  0.10214  0.32719  1.0000
  C   C92       1.0  0.55990  0.06314  0.32954  1.0000
  N   N28       1.0  0.59855  0.05307  0.33481  1.0000
  C   C93       1.0  0.62746  0.08098  0.33752  1.0000
  N   N29       1.0  0.61681  0.11960  0.33468  1.0000
  C   C94       1.0  0.42070  0.87661  0.33608  1.0000
  N   N30       1.0  0.44862  0.90532  0.32782  1.0000
  C   C95       1.0  0.43966  0.94439  0.33380  1.0000
  N   N31       1.0  0.40136  0.95440  0.34676  1.0000
  C   C96       1.0  0.37255  0.92662  0.35509  1.0000
  N   N32       1.0  0.38293  0.88799  0.34999  1.0000
  C   C97       1.0  0.99665  0.15971  0.34296  1.0000
  N   N33       1.0  0.00509  0.19862  0.35563  1.0000
  C   C98       1.0  0.04304  0.21172  0.35845  1.0000
  N   N34       1.0  0.07268  0.18511  0.34841  1.0000
  C   C99       1.0  0.06499  0.14608  0.33638  1.0000
  N   N35       1.0  0.02695  0.13425  0.33323  1.0000
  C   C100      1.0  0.00381  0.84829  0.35314  1.0000
  N   N36       1.0  0.99533  0.80916  0.36185  1.0000
  C   C101      1.0  0.95738  0.79589  0.36271  1.0000
  N   N37       1.0  0.92776  0.82268  0.35459  1.0000
  C   C102      1.0  0.93542  0.86192  0.34626  1.0000
  N   N38       1.0  0.97347  0.87383  0.34475  1.0000
  C   C103      1.0  0.84386  0.00033  0.34323  1.0000
  N   N39       1.0  0.80491  0.00850  0.35168  1.0000
  C   C104      1.0  0.79172  0.04653  0.35185  1.0000
  N   N40       1.0  0.81842  0.07651  0.34400  1.0000
  C   C105      1.0  0.85746  0.06909  0.33613  1.0000
  N   N41       1.0  0.86932  0.03100  0.33528  1.0000
  C   C106      1.0  0.15690  0.00827  0.33437  1.0000
  N   N42       1.0  0.19565  0.00057  0.34680  1.0000
  C   C107      1.0  0.20878  0.96288  0.35740  1.0000
  N   N43       1.0  0.18207  0.93263  0.35584  1.0000
  C   C108      1.0  0.14312  0.93952  0.34260  1.0000
  N   N44       1.0  0.13145  0.97745  0.33225  1.0000
  C   C109      1.0  0.50206  0.66008  0.33587  1.0000
  N   N45       1.0  0.49336  0.69898  0.32546  1.0000
  C   C110      1.0  0.45532  0.71156  0.32303  1.0000
  N   N46       1.0  0.42584  0.68432  0.33081  1.0000
  C   C111      1.0  0.43378  0.64527  0.34059  1.0000
  N   N47       1.0  0.47190  0.63403  0.34361  1.0000
  C   C112      1.0  0.49680  0.34710  0.33568  1.0000
  N   N48       1.0  0.50553  0.30826  0.32425  1.0000
  C   C113      1.0  0.54358  0.29570  0.32179  1.0000
  N   N49       1.0  0.57304  0.32290  0.33050  1.0000
  C   C114      1.0  0.56511  0.36189  0.34133  1.0000
  N   N50       1.0  0.52698  0.37309  0.34430  1.0000
  C   C115      1.0  0.65516  0.50222  0.33636  1.0000
  N   N51       1.0  0.69402  0.51065  0.32583  1.0000
  C   C116      1.0  0.70723  0.54875  0.32356  1.0000
  N   N52       1.0  0.68066  0.57860  0.33177  1.0000
  C   C117      1.0  0.64164  0.57095  0.34164  1.0000
  N   N53       1.0  0.62980  0.53273  0.34436  1.0000
  C   C118      1.0  0.34378  0.50493  0.33418  1.0000
  N   N54       1.0  0.30499  0.49655  0.32234  1.0000
  C   C119      1.0  0.29174  0.45847  0.31977  1.0000
  N   N55       1.0  0.31822  0.42858  0.32896  1.0000
  C   C120      1.0  0.35719  0.43618  0.34016  1.0000
  N   N56       1.0  0.36904  0.47439  0.34312  1.0000
  C   C121      1.0  0.96841  0.50155  0.39592  1.0000
  C   C122      1.0  0.99792  0.47249  0.39506  1.0000
  H   H57       1.0  0.99665  0.45054  0.44225  1.0000
  H   H58       1.0  0.94678  0.49971  0.44354  1.0000
  C   C123      1.0  0.07291  0.50390  0.66480  1.0000
  H   H59       1.0  0.09540  0.50536  0.61278  1.0000
  H   H60       1.0  0.04456  0.51019  0.63361  1.0000
  C   C124      1.0  0.47002  0.00502  0.39291  1.0000
  C   C125      1.0  0.49965  0.03419  0.39214  1.0000
  H   H61       1.0  0.49922  0.05556  0.44076  1.0000
  H   H62       1.0  0.44910  0.00621  0.44222  1.0000
  C   C126      1.0  0.56312  0.00761  0.65074  1.0000
  H   H63       1.0  0.58341  0.00821  0.59423  1.0000
  H   H64       1.0  0.53451  0.99791  0.62545  1.0000
  C   C127      1.0  0.05146  0.25279  0.36026  1.0000
  C   C128      1.0  0.03535  0.27875  0.42504  1.0000
  C   C129      1.0  0.04312  0.32013  0.42089  1.0000
  C   C130      1.0  0.06760  0.33603  0.35279  1.0000
  N   N57       1.0  0.02813  0.34341  0.48691  1.0000
  C   C131      1.0  0.00658  0.32921  0.55637  1.0000
  C   C132      1.0  0.00007  0.28829  0.56247  1.0000
  N   N58       1.0  0.01431  0.26482  0.49621  1.0000
  H   H65       1.0  0.99655  0.34794  0.60485  1.0000
  O   O11       1.0  0.98059  0.27232  0.63407  1.0000
  C   C133      1.0  0.94890  0.75471  0.36204  1.0000
  C   C134      1.0  0.96638  0.72780  0.42283  1.0000
  C   C135      1.0  0.95826  0.68652  0.41697  1.0000
  C   C136      1.0  0.93210  0.67150  0.35108  1.0000
  N   N59       1.0  0.97464  0.66239  0.47962  1.0000
  C   C137      1.0  0.99792  0.67558  0.54714  1.0000
  C   C138      1.0  0.00480  0.71636  0.55505  1.0000
  N   N60       1.0  0.98914  0.74069  0.49220  1.0000
  H   H66       1.0  0.00887  0.65621  0.59320  1.0000
  O   O12       1.0  0.02609  0.73134  0.62501  1.0000
  C   C139      1.0  0.75077  0.05471  0.35170  1.0000
  C   C140      1.0  0.72427  0.03734  0.41370  1.0000
  C   C141      1.0  0.68315  0.04508  0.40863  1.0000
  C   C142      1.0  0.66793  0.07088  0.34232  1.0000
  N   N61       1.0  0.65946  0.02867  0.47232  1.0000
  C   C143      1.0  0.67303  0.00581  0.54015  1.0000
  C   C144      1.0  0.71366  0.99946  0.54741  1.0000
  N   N62       1.0  0.73751  0.01507  0.48348  1.0000
  H   H67       1.0  0.65414  0.99467  0.58698  1.0000
  O   O13       1.0  0.72892  0.97868  0.61769  1.0000
  C   C145      1.0  0.24976  0.95515  0.36315  1.0000
  C   C146      1.0  0.26574  0.92836  0.42625  1.0000
  C   C147      1.0  0.30658  0.91919  0.42555  1.0000
  C   C148      1.0  0.33226  0.93708  0.36236  1.0000
  N   N63       1.0  0.32023  0.89400  0.48950  1.0000
  C   C149      1.0  0.29716  0.87769  0.55392  1.0000
  C   C150      1.0  0.25715  0.88763  0.55643  1.0000
  N   N64       1.0  0.24306  0.91209  0.49195  1.0000
  H   H68       1.0  0.30906  0.85928  0.60078  1.0000
  O   O14       1.0  0.23284  0.87287  0.62132  1.0000
  C   C151      1.0  0.41287  0.80883  0.39154  1.0000
  C   C152      1.0  0.42110  0.76820  0.38774  1.0000
  H   H69       1.0  0.40872  0.75012  0.43516  1.0000
  H   H70       1.0  0.39463  0.81872  0.44128  1.0000
  C   C153      1.0  0.49397  0.76174  0.64620  1.0000
  H   H71       1.0  0.51210  0.75165  0.59054  1.0000
  H   H72       1.0  0.47598  0.78613  0.62174  1.0000
  C   C154      1.0  0.58640  0.19819  0.38734  1.0000
  C   C155      1.0  0.57806  0.23881  0.38469  1.0000
  H   H73       1.0  0.59059  0.25669  0.43226  1.0000
  H   H74       1.0  0.60491  0.18804  0.43628  1.0000
  C   C156      1.0  0.50512  0.24549  0.64291  1.0000
  H   H75       1.0  0.48718  0.25571  0.58707  1.0000
  H   H76       1.0  0.52252  0.22058  0.61895  1.0000
  H   H77       1.0  0.52475  0.26955  0.66294  1.0000
  C   C157      1.0  0.80500  0.58981  0.39299  1.0000
  C   C158      1.0  0.76436  0.58227  0.38870  1.0000
  H   H78       1.0  0.74658  0.59514  0.43568  1.0000
  H   H79       1.0  0.81524  0.60820  0.44239  1.0000
  C   C159      1.0  0.75785  0.50940  0.64680  1.0000
  H   H80       1.0  0.74756  0.49155  0.59063  1.0000
  H   H81       1.0  0.78298  0.52680  0.62339  1.0000
  C   C160      1.0  0.19347  0.41783  0.38624  1.0000
  C   C161      1.0  0.23414  0.42526  0.38328  1.0000
  H   H82       1.0  0.25157  0.41253  0.43118  1.0000
  H   H83       1.0  0.18293  0.39969  0.43578  1.0000
  C   C162      1.0  0.24262  0.49768  0.63984  1.0000
  H   H84       1.0  0.25345  0.51559  0.58428  1.0000
  H   H85       1.0  0.21710  0.48108  0.61572  1.0000
  H   H86       1.0  0.26577  0.47715  0.65932  1.0000
  C   C163      1.0  0.14118  0.04678  0.32766  1.0000
  C   C164      1.0  0.14467  0.07448  0.39858  1.0000
  C   C165      1.0  0.12153  0.10947  0.39889  1.0000
  C   C166      1.0  0.09441  0.11686  0.32869  1.0000
  N   N65       1.0  0.12399  0.13359  0.47188  1.0000
  C   C167      1.0  0.14745  0.12620  0.54344  1.0000
  C   C168      1.0  0.16956  0.09128  0.54436  1.0000
  N   N66       1.0  0.16737  0.06703  0.47192  1.0000
  H   H87       1.0  0.14808  0.14528  0.59650  1.0000
  O   O15       1.0  0.19317  0.08209  0.61544  1.0000
  H   H88       1.0  0.16794  0.02700  0.64584  1.0000
  C   C169      1.0  0.85963  0.96170  0.33878  1.0000
  C   C170      1.0  0.85688  0.93453  0.41094  1.0000
  C   C171      1.0  0.87969  0.89928  0.41067  1.0000
  C   C172      1.0  0.90595  0.89118  0.33920  1.0000
  N   N67       1.0  0.87787  0.87546  0.48418  1.0000
  C   C173      1.0  0.85541  0.88344  0.55700  1.0000
  C   C174      1.0  0.83401  0.91882  0.55895  1.0000
  N   N68       1.0  0.83545  0.94278  0.48585  1.0000
  H   H89       1.0  0.85552  0.86477  0.61084  1.0000
  O   O16       1.0  0.81275  0.92925  0.63294  1.0000
  C   C175      1.0  0.95802  0.14424  0.33584  1.0000
  C   C176      1.0  0.93012  0.14726  0.40613  1.0000
  C   C177      1.0  0.89458  0.12477  0.40329  1.0000
  C   C178      1.0  0.88679  0.09877  0.33079  1.0000
  N   N69       1.0  0.87002  0.12670  0.47529  1.0000
  C   C179      1.0  0.87752  0.14902  0.54887  1.0000
  C   C180      1.0  0.91307  0.17022  0.55322  1.0000
  N   N70       1.0  0.93779  0.16861  0.48172  1.0000
  H   H90       1.0  0.85820  0.14912  0.60133  1.0000
  O   O17       1.0  0.92275  0.19174  0.62762  1.0000
  H   H91       1.0  0.97313  0.16051  0.66564  1.0000
  C   C181      1.0  0.04246  0.86390  0.34588  1.0000
  C   C182      1.0  0.07068  0.86108  0.41561  1.0000
  C   C183      1.0  0.10615  0.88375  0.41206  1.0000
  C   C184      1.0  0.11353  0.90983  0.33947  1.0000
  N   N71       1.0  0.13106  0.88183  0.48342  1.0000
  C   C185      1.0  0.12399  0.85935  0.55697  1.0000
  C   C186      1.0  0.08857  0.83793  0.56198  1.0000
  N   N72       1.0  0.06348  0.83954  0.49114  1.0000
  H   H92       1.0  0.14357  0.85918  0.60890  1.0000
  O   O18       1.0  0.07941  0.81610  0.63625  1.0000
  C   C187      1.0  0.40673  0.58753  0.41611  1.0000
  C   C188      1.0  0.38442  0.55259  0.41404  1.0000
  H   H93       1.0  0.38833  0.53255  0.46474  1.0000
  H   H94       1.0  0.42612  0.59157  0.46797  1.0000
  C   C189      1.0  0.33522  0.55651  0.65151  1.0000
  H   H95       1.0  0.31728  0.55152  0.59199  1.0000
  H   H96       1.0  0.36161  0.57254  0.63054  1.0000
  C   C190      1.0  0.59170  0.41979  0.41704  1.0000
  C   C191      1.0  0.61406  0.45470  0.41536  1.0000
  H   H97       1.0  0.60984  0.47485  0.46571  1.0000
  H   H98       1.0  0.57198  0.41590  0.46827  1.0000
  C   C192      1.0  0.66629  0.44863  0.65371  1.0000
  H   H99       1.0  0.68483  0.45353  0.59511  1.0000
  H   H100      1.0  0.64051  0.43185  0.63181  1.0000
  C   C193      1.0  0.58458  0.59804  0.41782  1.0000
  C   C194      1.0  0.54976  0.62007  0.41582  1.0000
  H   H101      1.0  0.52986  0.61592  0.46660  1.0000
  H   H102      1.0  0.58861  0.57860  0.46966  1.0000
  C   C195      1.0  0.55352  0.66934  0.65250  1.0000
  H   H103      1.0  0.54831  0.68753  0.59341  1.0000
  H   H104      1.0  0.56985  0.64330  0.63094  1.0000
  C   C196      1.0  0.41430  0.40939  0.41683  1.0000
  C   C197      1.0  0.44911  0.38735  0.41514  1.0000
  H   H105      1.0  0.46905  0.39170  0.46578  1.0000
  H   H106      1.0  0.41029  0.42902  0.46832  1.0000
  C   C198      1.0  0.44404  0.33620  0.65253  1.0000
  H   H107      1.0  0.44897  0.31783  0.59359  1.0000
  H   H108      1.0  0.42739  0.36203  0.63100  1.0000
