data_image0
_chemical_formula_structural       CNHC2NC6H6C2NC2NCH2CHC3H2C2H5NC7H4C2NC2NCHC3H2CH2C6NC28H14C2H2C15H13C2H2CH3C2H2
_chemical_formula_sum              "C92 N8 H62"
_cell_length_a       29.9983
_cell_length_b       29.9981
_cell_length_c       14.8622
_cell_angle_alpha    90
_cell_angle_beta     90
_cell_angle_gamma    90.0715

_space_group_name_H-M_alt    "P 1"
_space_group_IT_number       1

loop_
  _space_group_symop_operation_xyz
  'x, y, z'

loop_
  _atom_site_type_symbol
  _atom_site_label
  _atom_site_symmetry_multiplicity
  _atom_site_fract_x
  _atom_site_fract_y
  _atom_site_fract_z
  _atom_site_occupancy
  C   C1        1.0  0.04568  0.09642  0.34174  1.0000
  N   N1        1.0  0.05477  0.05208  0.34021  1.0000
  H   H1        1.0  0.03225  0.02943  0.33505  1.0000
  C   C2        1.0  0.11981  0.08495  0.34829  1.0000
  C   C3        1.0  0.09913  0.04322  0.34391  1.0000
  N   N2        1.0  0.95310  0.05313  0.34010  1.0000
  C   C4        1.0  0.96171  0.09740  0.33905  1.0000
  C   C5        1.0  0.88765  0.08585  0.33868  1.0000
  C   C6        1.0  0.19388  0.01358  0.26688  1.0000
  C   C7        1.0  0.24085  0.01316  0.26665  1.0000
  C   C8        1.0  0.38505  0.03401  0.30861  1.0000
  C   C9        1.0  0.33813  0.03543  0.31058  1.0000
  H   H2        1.0  0.40182  0.06172  0.28694  1.0000
  H   H3        1.0  0.32249  0.06394  0.28977  1.0000
  H   H4        1.0  0.25714  0.02129  0.20839  1.0000
  H   H5        1.0  0.17737  0.02229  0.20922  1.0000
  H   H6        1.0  0.15318  0.09142  0.35316  1.0000
  H   H7        1.0  0.85413  0.09190  0.33810  1.0000
  C   C10       1.0  0.48088  0.00736  0.25456  1.0000
  C   C11       1.0  0.52836  0.00727  0.25390  1.0000
  N   N3        1.0  0.54941  0.02186  0.17836  1.0000
  C   C12       1.0  0.52805  0.03540  0.10272  1.0000
  C   C13       1.0  0.48089  0.03491  0.10261  1.0000
  N   N4        1.0  0.45980  0.02063  0.17806  1.0000
  C   C14       1.0  0.55463  0.05049  0.02439  1.0000
  H   H8        1.0  0.58286  0.02799  0.01466  1.0000
  H   H9        1.0  0.56783  0.08365  0.03922  1.0000
  C   C15       1.0  0.45398  0.04825  0.02342  1.0000
  H   H10       1.0  0.42665  0.06970  0.04547  1.0000
  C   C16       1.0  0.90884  0.04443  0.33988  1.0000
  C   C17       1.0  0.62350  0.01784  0.39883  1.0000
  C   C18       1.0  0.67043  0.01951  0.39999  1.0000
  H   H11       1.0  0.68553  0.03889  0.44776  1.0000
  H   H12       1.0  0.60622  0.03577  0.44585  1.0000
  C   C19       1.0  0.52735  0.05198  0.60248  1.0000
  C   C20       1.0  0.48101  0.07346  0.61688  1.0000
  H   H13       1.0  0.52263  0.01795  0.57847  1.0000
  H   H14       1.0  0.54579  0.07054  0.55128  1.0000
  H   H15       1.0  0.46246  0.07322  0.55355  1.0000
  H   H16       1.0  0.48550  0.10820  0.63734  1.0000
  H   H17       1.0  0.43945  0.01812  0.66084  1.0000
  N   N5        1.0  0.05595  0.95049  0.34469  1.0000
  C   C21       1.0  0.04723  0.90619  0.34545  1.0000
  C   C22       1.0  0.00502  0.88449  0.34491  1.0000
  C   C23       1.0  0.00551  0.19036  0.25703  1.0000
  C   C24       1.0  0.01533  0.76542  0.26721  1.0000
  C   C25       1.0  0.01611  0.81237  0.26706  1.0000
  C   C26       1.0  0.03756  0.66853  0.31300  1.0000
  C   C27       1.0  0.03628  0.62161  0.31145  1.0000
  H   H18       1.0  0.02533  0.82874  0.20953  1.0000
  H   H19       1.0  0.02366  0.74897  0.20928  1.0000
  H   H20       1.0  0.00590  0.25313  0.19535  1.0000
  H   H21       1.0  0.00736  0.17354  0.19720  1.0000
  C   C28       1.0  0.00972  0.52595  0.25626  1.0000
  C   C29       1.0  0.00984  0.47848  0.25515  1.0000
  N   N6        1.0  0.02447  0.45775  0.17929  1.0000
  C   C30       1.0  0.03786  0.47943  0.10385  1.0000
  C   C31       1.0  0.03717  0.52659  0.10430  1.0000
  N   N7        1.0  0.02284  0.54736  0.18001  1.0000
  C   C32       1.0  0.05293  0.45323  0.02505  1.0000
  H   H22       1.0  0.03059  0.42482  0.01520  1.0000
  C   C33       1.0  0.05028  0.55387  0.02540  1.0000
  C   C34       1.0  0.02234  0.33616  0.40093  1.0000
  C   C35       1.0  0.02062  0.38310  0.39984  1.0000
  H   H23       1.0  0.03835  0.40042  0.44718  1.0000
  H   H24       1.0  0.04156  0.32111  0.44898  1.0000
  C   C36       1.0  0.05398  0.48080  0.60347  1.0000
  H   H25       1.0  0.01984  0.48540  0.58009  1.0000
  H   H26       1.0  0.02006  0.56839  0.66334  1.0000
  C   C37       1.0  0.08721  0.11742  0.34661  1.0000
  C   C38       1.0  0.12191  0.00150  0.34454  1.0000
  C   C39       1.0  0.10024  0.95925  0.34471  1.0000
  C   C40       1.0  0.08873  0.88516  0.34653  1.0000
  C   C41       1.0  0.12126  0.91772  0.34493  1.0000
  C   C42       1.0  0.96331  0.90720  0.34279  1.0000
  N   N8        1.0  0.95437  0.95155  0.34475  1.0000
  C   C43       1.0  0.91007  0.96049  0.34045  1.0000
  C   C44       1.0  0.88919  0.91889  0.33565  1.0000
  C   C45       1.0  0.92170  0.88638  0.33664  1.0000
  C   C46       1.0  0.88739  0.00217  0.33996  1.0000
  C   C47       1.0  0.92019  0.11845  0.33796  1.0000
  C   C48       1.0  0.00392  0.11899  0.33971  1.0000
  C   C49       1.0  0.00411  0.16666  0.33906  1.0000
  C   C50       1.0  0.00415  0.23731  0.25623  1.0000
  C   C51       1.0  0.00124  0.26230  0.33705  1.0000
  C   C52       1.0  0.99938  0.31021  0.33598  1.0000
  C   C53       1.0  0.97297  0.38051  0.26840  1.0000
  C   C54       1.0  0.97451  0.33357  0.26997  1.0000
  C   C55       1.0  0.83974  0.00156  0.33868  1.0000
  C   C56       1.0  0.81614  0.00285  0.25653  1.0000
  C   C57       1.0  0.76920  0.00122  0.25560  1.0000
  C   C58       1.0  0.74419  0.99821  0.33640  1.0000
  C   C59       1.0  0.69630  0.99635  0.33531  1.0000
  C   C60       1.0  0.67292  0.97130  0.26953  1.0000
  C   C61       1.0  0.62598  0.96982  0.26790  1.0000
  C   C62       1.0  0.60044  0.99319  0.33239  1.0000
  C   C63       1.0  0.00446  0.83672  0.34501  1.0000
  C   C64       1.0  0.00196  0.74126  0.34456  1.0000
  C   C65       1.0  0.00074  0.69360  0.34411  1.0000
  C   C66       1.0  0.99779  0.59776  0.33876  1.0000
  C   C67       1.0  0.16972  0.00190  0.34508  1.0000
  C   C68       1.0  0.26524  0.00022  0.34394  1.0000
  C   C69       1.0  0.31292  0.99888  0.34283  1.0000
  C   C70       1.0  0.40878  0.99561  0.33655  1.0000
  H   H27       1.0  0.09339  0.15090  0.34979  1.0000
  H   H28       1.0  0.97691  0.97415  0.35072  1.0000
  H   H29       1.0  0.15473  0.91144  0.34448  1.0000
  H   H30       1.0  0.09497  0.85169  0.34752  1.0000
  H   H31       1.0  0.91532  0.85297  0.33228  1.0000
  H   H32       1.0  0.85579  0.91257  0.33066  1.0000
  H   H33       1.0  0.83300  0.00491  0.19679  1.0000
  H   H34       1.0  0.75339  0.00298  0.19471  1.0000
  H   H35       1.0  0.61052  0.95105  0.21952  1.0000
  H   H36       1.0  0.68993  0.95315  0.22246  1.0000
  H   H37       1.0  0.95645  0.31652  0.22274  1.0000
  H   H38       1.0  0.95428  0.39591  0.21990  1.0000
  H   H39       1.0  0.06610  0.68428  0.29249  1.0000
  H   H40       1.0  0.06412  0.60493  0.29032  1.0000
  C   C71       1.0  0.99604  0.54995  0.33391  1.0000
  C   C72       1.0  0.99544  0.45377  0.33107  1.0000
  H   H41       1.0  0.08622  0.44031  0.03935  1.0000
  H   H42       1.0  0.07174  0.58120  0.04767  1.0000
  C   C73       1.0  0.45662  0.99376  0.33199  1.0000
  C   C74       1.0  0.55280  0.99271  0.32999  1.0000
  C   C75       1.0  0.00006  0.23802  0.41895  1.0000
  C   C76       1.0  0.00140  0.19107  0.42010  1.0000
  C   C77       1.0  0.99614  0.40611  0.33317  1.0000
  C   C78       1.0  0.76839  0.99704  0.41837  1.0000
  C   C79       1.0  0.81531  0.99865  0.41965  1.0000
  C   C80       1.0  0.99144  0.81278  0.42265  1.0000
  C   C81       1.0  0.98981  0.76584  0.42210  1.0000
  C   C82       1.0  0.96124  0.62292  0.37115  1.0000
  C   C83       1.0  0.96275  0.66987  0.37424  1.0000
  C   C84       1.0  0.19391  0.98965  0.42290  1.0000
  C   C85       1.0  0.24087  0.98838  0.42199  1.0000
  C   C86       1.0  0.33653  0.96094  0.37328  1.0000
  C   C87       1.0  0.38346  0.95927  0.36979  1.0000
  H   H43       1.0  0.39901  0.93063  0.39002  1.0000
  H   H44       1.0  0.31961  0.93350  0.39597  1.0000
  H   H45       1.0  0.25721  0.97934  0.47962  1.0000
  H   H46       1.0  0.17740  0.98100  0.48061  1.0000
  H   H47       1.0  0.98275  0.82945  0.48013  1.0000
  H   H48       1.0  0.98048  0.74966  0.47975  1.0000
  H   H49       1.0  0.91401  0.15195  0.33713  1.0000
  H   H50       1.0  0.83158  0.99731  0.48016  1.0000
  H   H51       1.0  0.75205  0.99399  0.47848  1.0000
  H   H52       1.0  0.99986  0.17476  0.48055  1.0000
  H   H53       1.0  0.99699  0.25431  0.47910  1.0000
  H   H54       1.0  0.93515  0.68671  0.39615  1.0000
  H   H55       1.0  0.93255  0.60724  0.39098  1.0000
  C   C88       1.0  0.98030  0.47784  0.40682  1.0000
  C   C89       1.0  0.98078  0.52479  0.40841  1.0000
  H   H56       1.0  0.97068  0.54051  0.46605  1.0000
  H   H57       1.0  0.96868  0.46115  0.46216  1.0000
  C   C90       1.0  0.07534  0.52722  0.61817  1.0000
  H   H58       1.0  0.07239  0.46264  0.55171  1.0000
  H   H59       1.0  0.07484  0.54597  0.55509  1.0000
  H   H60       1.0  0.11017  0.52288  0.63811  1.0000
  C   C91       1.0  0.52849  0.97772  0.40556  1.0000
  C   C92       1.0  0.48155  0.97846  0.40676  1.0000
  H   H61       1.0  0.46566  0.96847  0.46432  1.0000
  H   H62       1.0  0.54499  0.96602  0.46102  1.0000
