data_image0
_chemical_formula_structural       C2OCHC2OCH5C3OC3OC3OH4C6O2H4C6O2H4NCHNCHNCHNCHNCHNCHC3HO2C3HOC3OHC3HOC3OHC2NC2O2HC2NC2O2HC2NC2OC2NC2O2HC2NC2O2HC2NC2O2HC3OH4C6O2H4C6O2H4NCHNCHNCHNCHNCHNCHC3HO2C3HOC3OHC3HOC3OHC2NC2O2HC2NC2O2HC2NC2OC2NC2O2HC2NC2O2HC2NC2O2HC6O2H3C6O2H4C6O2H4NCHNCHNCHNCHNCHNCHC3HOC3OHC3HOC3OHC3HOC3OHC2NC2O2HC2NC2O2HC2NC2O2HC2NC2O2HC2NC2O2HC2NC2O2HC6O2H3C6O2H4C6O2H4NCHNCHNCHNCHNCHNCHC3HOC3OHC3HOC3OHC3HOC3OHC2NC2O2HC2NC2O2HC2NC2O2HC2NC2O2HC2NC2O2HC2NC2O2H
_chemical_formula_sum              "C264 O96 H120 N48"
_cell_length_a       46.1293
_cell_length_b       46.1294
_cell_length_c       14.9418
_cell_angle_alpha    90
_cell_angle_beta     90
_cell_angle_gamma    120

_space_group_name_H-M_alt    "P 1"
_space_group_IT_number       1

loop_
  _space_group_symop_operation_xyz
  'x, y, z'

loop_
  _atom_site_type_symbol
  _atom_site_label
  _atom_site_symmetry_multiplicity
  _atom_site_fract_x
  _atom_site_fract_y
  _atom_site_fract_z
  _atom_site_occupancy
  C   C1        1.0  0.02105  0.26109  0.31842  1.0000
  C   C2        1.0  0.04115  0.29705  0.31225  1.0000
  O   O1        1.0  0.02934  0.31689  0.28078  1.0000
  C   C3        1.0  0.03971  0.24432  0.33297  1.0000
  H   H1        1.0  0.02807  0.21926  0.34342  1.0000
  C   C4        1.0  0.02105  0.76109  0.31842  1.0000
  C   C5        1.0  0.04115  0.79705  0.31225  1.0000
  O   O2        1.0  0.02933  0.81689  0.28078  1.0000
  C   C6        1.0  0.03971  0.74432  0.33297  1.0000
  H   H2        1.0  0.02807  0.71926  0.34342  1.0000
  H   H3        1.0  0.02558  0.31234  0.21624  1.0000
  H   H4        1.0  0.02558  0.81234  0.21624  1.0000
  H   H5        1.0  0.05684  0.33225  0.51388  1.0000
  H   H6        1.0  0.05684  0.83225  0.51388  1.0000
  C   C7        1.0  0.07547  0.31462  0.33683  1.0000
  C   C8        1.0  0.09210  0.29620  0.34948  1.0000
  C   C9        1.0  0.07472  0.26098  0.34424  1.0000
  O   O3        1.0  0.07442  0.33388  0.54238  1.0000
  C   C10       1.0  0.07547  0.81463  0.33683  1.0000
  C   C11       1.0  0.09210  0.79620  0.34948  1.0000
  C   C12       1.0  0.07472  0.76098  0.34424  1.0000
  O   O4        1.0  0.07442  0.83388  0.54238  1.0000
  C   C13       1.0  0.48473  0.24275  0.31844  1.0000
  C   C14       1.0  0.43028  0.18923  0.33667  1.0000
  C   C15       1.0  0.46462  0.20680  0.31220  1.0000
  O   O5        1.0  0.47644  0.18695  0.28082  1.0000
  H   H7        1.0  0.98019  0.19147  0.21628  1.0000
  H   H8        1.0  0.52558  0.31234  0.21624  1.0000
  H   H9        1.0  0.37133  0.18721  0.29456  1.0000
  H   H10       1.0  0.13444  0.31671  0.29481  1.0000
  C   C16       1.0  0.26211  0.24300  0.31878  1.0000
  C   C17       1.0  0.31567  0.24211  0.33671  1.0000
  C   C18       1.0  0.29807  0.25887  0.31251  1.0000
  C   C19       1.0  0.24372  0.26095  0.31865  1.0000
  C   C20       1.0  0.20776  0.24507  0.31233  1.0000
  C   C21       1.0  0.19016  0.26186  0.33621  1.0000
  O   O6        1.0  0.31791  0.29057  0.28126  1.0000
  O   O7        1.0  0.18791  0.21335  0.28125  1.0000
  H   H11       1.0  0.31342  0.28983  0.21671  1.0000
  H   H12       1.0  0.19241  0.21404  0.21671  1.0000
  H   H13       1.0  0.31766  0.18512  0.29485  1.0000
  H   H14       1.0  0.18811  0.31876  0.29379  1.0000
  C   C22       1.0  0.26198  0.02011  0.31852  1.0000
  C   C23       1.0  0.26292  0.07456  0.33675  1.0000
  C   C24       1.0  0.24615  0.04023  0.31229  1.0000
  C   C25       1.0  0.24398  0.48378  0.31863  1.0000
  C   C26       1.0  0.25980  0.46365  0.31247  1.0000
  C   C27       1.0  0.24301  0.42931  0.33685  1.0000
  O   O8        1.0  0.21448  0.02844  0.28088  1.0000
  O   O9        1.0  0.29148  0.47545  0.28111  1.0000
  H   H15       1.0  0.21525  0.52466  0.21635  1.0000
  H   H16       1.0  0.29072  0.97918  0.21656  1.0000
  H   H17       1.0  0.31981  0.13348  0.29438  1.0000
  H   H18       1.0  0.18605  0.37040  0.29462  1.0000
  N   N1        1.0  0.13641  0.24043  0.27331  1.0000
  C   C28       1.0  0.10550  0.23740  0.27189  1.0000
  H   H19       1.0  0.09515  0.23702  0.21107  1.0000
  N   N2        1.0  0.26450  0.39715  0.27317  1.0000
  C   C29       1.0  0.26745  0.36922  0.27138  1.0000
  H   H20       1.0  0.26798  0.35946  0.21036  1.0000
  N   N3        1.0  0.10768  0.36849  0.27316  1.0000
  C   C30       1.0  0.13564  0.39933  0.27177  1.0000
  H   H21       1.0  0.14538  0.40991  0.21097  1.0000
  N   N4        1.0  0.36935  0.26347  0.27351  1.0000
  C   C31       1.0  0.40024  0.26644  0.27190  1.0000
  H   H22       1.0  0.41053  0.26678  0.21103  1.0000
  N   N5        1.0  0.24130  0.10683  0.27327  1.0000
  C   C32       1.0  0.23842  0.13479  0.27205  1.0000
  H   H23       1.0  0.23756  0.14455  0.21129  1.0000
  N   N6        1.0  0.39811  0.13531  0.27317  1.0000
  C   C33       1.0  0.37029  0.10434  0.27173  1.0000
  H   H24       1.0  0.36040  0.09390  0.21095  1.0000
  C   C34       1.0  0.46608  0.25952  0.33311  1.0000
  C   C35       1.0  0.43106  0.24288  0.34412  1.0000
  C   C36       1.0  0.41366  0.20766  0.34926  1.0000
  H   H25       1.0  0.47773  0.28459  0.34349  1.0000
  O   O10       1.0  0.37961  0.19098  0.35653  1.0000
  O   O11       1.0  0.12615  0.31288  0.35677  1.0000
  C   C37       1.0  0.24537  0.20758  0.33335  1.0000
  C   C38       1.0  0.26203  0.18923  0.34434  1.0000
  C   C39       1.0  0.29726  0.20708  0.34944  1.0000
  H   H26       1.0  0.22030  0.19413  0.34363  1.0000
  O   O12       1.0  0.31398  0.18974  0.35678  1.0000
  C   C40       1.0  0.20856  0.29690  0.34868  1.0000
  C   C41       1.0  0.24379  0.31474  0.34379  1.0000
  C   C42       1.0  0.26045  0.29637  0.33311  1.0000
  O   O13       1.0  0.19185  0.31425  0.35579  1.0000
  H   H27       1.0  0.28552  0.30982  0.34346  1.0000
  C   C43       1.0  0.29741  0.03875  0.33300  1.0000
  C   C44       1.0  0.31579  0.07376  0.34429  1.0000
  C   C45       1.0  0.29797  0.09117  0.34930  1.0000
  H   H28       1.0  0.31083  0.02710  0.34346  1.0000
  O   O14       1.0  0.31536  0.12524  0.35638  1.0000
  C   C46       1.0  0.20797  0.41272  0.34945  1.0000
  C   C47       1.0  0.19016  0.43014  0.34436  1.0000
  C   C48       1.0  0.20856  0.46515  0.33321  1.0000
  O   O15       1.0  0.19058  0.37866  0.35660  1.0000
  H   H29       1.0  0.19513  0.47681  0.34332  1.0000
  C   C49       1.0  0.15495  0.24545  0.34873  1.0000
  C   C50       1.0  0.09292  0.24388  0.35114  1.0000
  N   N7        1.0  0.11216  0.25012  0.42532  1.0000
  C   C51       1.0  0.14115  0.24928  0.43016  1.0000
  C   C52       1.0  0.15820  0.25717  0.51150  1.0000
  O   O16       1.0  0.15402  0.27462  0.56570  1.0000
  O   O17       1.0  0.17080  0.24112  0.54235  1.0000
  H   H30       1.0  0.17271  0.22542  0.51330  1.0000
  C   C53       1.0  0.25934  0.41041  0.34889  1.0000
  C   C54       1.0  0.26094  0.35006  0.35035  1.0000
  N   N8        1.0  0.25460  0.36282  0.42490  1.0000
  C   C55       1.0  0.25538  0.39262  0.43011  1.0000
  C   C56       1.0  0.24755  0.40171  0.51164  1.0000
  O   O18       1.0  0.23009  0.38003  0.56568  1.0000
  O   O19       1.0  0.26370  0.43032  0.54276  1.0000
  H   H31       1.0  0.27941  0.44794  0.51381  1.0000
  C   C57       1.0  0.09439  0.34987  0.34852  1.0000
  C   C58       1.0  0.15486  0.41199  0.35069  1.0000
  N   N9        1.0  0.14190  0.39267  0.42487  1.0000
  C   C59       1.0  0.11211  0.36366  0.42990  1.0000
  C   C60       1.0  0.10308  0.34675  0.51146  1.0000
  O   O20       1.0  0.12484  0.35030  0.56438  1.0000
  C   C61       1.0  0.35088  0.25851  0.34905  1.0000
  C   C62       1.0  0.41289  0.26001  0.35110  1.0000
  N   N10       1.0  0.39372  0.25383  0.42541  1.0000
  C   C63       1.0  0.36474  0.25468  0.43038  1.0000
  C   C64       1.0  0.34779  0.24693  0.51184  1.0000
  O   O21       1.0  0.35197  0.22951  0.56612  1.0000
  O   O22       1.0  0.33526  0.26306  0.54262  1.0000
  H   H32       1.0  0.33335  0.27874  0.51347  1.0000
  C   C65       1.0  0.24660  0.09348  0.34855  1.0000
  C   C66       1.0  0.24493  0.15394  0.35113  1.0000
  N   N11       1.0  0.25128  0.14094  0.42518  1.0000
  C   C67       1.0  0.25055  0.11116  0.43002  1.0000
  C   C68       1.0  0.25834  0.10194  0.51144  1.0000
  O   O23       1.0  0.27577  0.12365  0.56548  1.0000
  O   O24       1.0  0.24202  0.07337  0.54263  1.0000
  H   H33       1.0  0.22630  0.05578  0.51358  1.0000
  C   C69       1.0  0.41138  0.15399  0.34847  1.0000
  C   C70       1.0  0.35111  0.09193  0.35077  1.0000
  N   N12       1.0  0.36390  0.11118  0.42506  1.0000
  C   C71       1.0  0.39367  0.14022  0.42991  1.0000
  C   C72       1.0  0.40271  0.15719  0.51138  1.0000
  O   O25       1.0  0.38095  0.15368  0.56427  1.0000
  O   O26       1.0  0.43136  0.17005  0.54232  1.0000
  H   H34       1.0  0.44894  0.17165  0.51386  1.0000
  C   C73       1.0  0.48473  0.74275  0.31844  1.0000
  C   C74       1.0  0.43028  0.68923  0.33667  1.0000
  C   C75       1.0  0.46462  0.70680  0.31220  1.0000
  O   O27       1.0  0.47644  0.68695  0.28082  1.0000
  H   H35       1.0  0.98019  0.69147  0.21628  1.0000
  H   H36       1.0  0.52558  0.81234  0.21624  1.0000
  H   H37       1.0  0.37133  0.68720  0.29456  1.0000
  H   H38       1.0  0.13444  0.81671  0.29481  1.0000
  C   C76       1.0  0.26211  0.74300  0.31878  1.0000
  C   C77       1.0  0.31567  0.74211  0.33671  1.0000
  C   C78       1.0  0.29807  0.75887  0.31251  1.0000
  C   C79       1.0  0.24372  0.76095  0.31865  1.0000
  C   C80       1.0  0.20776  0.74507  0.31233  1.0000
  C   C81       1.0  0.19016  0.76186  0.33621  1.0000
  O   O28       1.0  0.31791  0.79057  0.28126  1.0000
  O   O29       1.0  0.18791  0.71335  0.28125  1.0000
  H   H39       1.0  0.31342  0.78983  0.21671  1.0000
  H   H40       1.0  0.19241  0.71404  0.21671  1.0000
  H   H41       1.0  0.31766  0.68512  0.29485  1.0000
  H   H42       1.0  0.18811  0.81876  0.29379  1.0000
  C   C82       1.0  0.26198  0.52011  0.31852  1.0000
  C   C83       1.0  0.26292  0.57456  0.33675  1.0000
  C   C84       1.0  0.24615  0.54023  0.31229  1.0000
  C   C85       1.0  0.24398  0.98378  0.31863  1.0000
  C   C86       1.0  0.25980  0.96365  0.31247  1.0000
  C   C87       1.0  0.24301  0.92931  0.33685  1.0000
  O   O30       1.0  0.21448  0.52843  0.28088  1.0000
  O   O31       1.0  0.29148  0.97544  0.28111  1.0000
  H   H43       1.0  0.21525  0.02466  0.21635  1.0000
  H   H44       1.0  0.29072  0.47919  0.21656  1.0000
  H   H45       1.0  0.31981  0.63348  0.29438  1.0000
  H   H46       1.0  0.18605  0.87040  0.29462  1.0000
  N   N13       1.0  0.13641  0.74042  0.27331  1.0000
  C   C88       1.0  0.10550  0.73740  0.27189  1.0000
  H   H47       1.0  0.09515  0.73702  0.21107  1.0000
  N   N14       1.0  0.26450  0.89715  0.27317  1.0000
  C   C89       1.0  0.26745  0.86922  0.27138  1.0000
  H   H48       1.0  0.26798  0.85946  0.21036  1.0000
  N   N15       1.0  0.10768  0.86848  0.27316  1.0000
  C   C90       1.0  0.13564  0.89933  0.27177  1.0000
  H   H49       1.0  0.14538  0.90991  0.21097  1.0000
  N   N16       1.0  0.36935  0.76347  0.27351  1.0000
  C   C91       1.0  0.40024  0.76644  0.27190  1.0000
  H   H50       1.0  0.41053  0.76678  0.21103  1.0000
  N   N17       1.0  0.24130  0.60683  0.27327  1.0000
  C   C92       1.0  0.23842  0.63479  0.27205  1.0000
  H   H51       1.0  0.23756  0.64455  0.21129  1.0000
  N   N18       1.0  0.39811  0.63531  0.27317  1.0000
  C   C93       1.0  0.37029  0.60434  0.27173  1.0000
  H   H52       1.0  0.36041  0.59390  0.21095  1.0000
  C   C94       1.0  0.46608  0.75952  0.33311  1.0000
  C   C95       1.0  0.43106  0.74288  0.34412  1.0000
  C   C96       1.0  0.41366  0.70766  0.34926  1.0000
  H   H53       1.0  0.47773  0.78459  0.34349  1.0000
  O   O32       1.0  0.37961  0.69098  0.35653  1.0000
  O   O33       1.0  0.12615  0.81288  0.35677  1.0000
  C   C97       1.0  0.24537  0.70758  0.33335  1.0000
  C   C98       1.0  0.26203  0.68923  0.34434  1.0000
  C   C99       1.0  0.29726  0.70708  0.34944  1.0000
  H   H54       1.0  0.22030  0.69413  0.34363  1.0000
  O   O34       1.0  0.31398  0.68974  0.35678  1.0000
  C   C100      1.0  0.20856  0.79690  0.34868  1.0000
  C   C101      1.0  0.24379  0.81474  0.34379  1.0000
  C   C102      1.0  0.26045  0.79637  0.33311  1.0000
  O   O35       1.0  0.19185  0.81425  0.35579  1.0000
  H   H55       1.0  0.28552  0.80982  0.34346  1.0000
  C   C103      1.0  0.29741  0.53875  0.33300  1.0000
  C   C104      1.0  0.31579  0.57376  0.34429  1.0000
  C   C105      1.0  0.29797  0.59117  0.34930  1.0000
  H   H56       1.0  0.31083  0.52710  0.34346  1.0000
  O   O36       1.0  0.31536  0.62523  0.35638  1.0000
  C   C106      1.0  0.20797  0.91272  0.34945  1.0000
  C   C107      1.0  0.19016  0.93014  0.34436  1.0000
  C   C108      1.0  0.20856  0.96515  0.33321  1.0000
  O   O37       1.0  0.19058  0.87866  0.35660  1.0000
  H   H57       1.0  0.19513  0.97681  0.34332  1.0000
  C   C109      1.0  0.15495  0.74545  0.34873  1.0000
  C   C110      1.0  0.09292  0.74387  0.35114  1.0000
  N   N19       1.0  0.11216  0.75012  0.42532  1.0000
  C   C111      1.0  0.14115  0.74928  0.43016  1.0000
  C   C112      1.0  0.15820  0.75717  0.51150  1.0000
  O   O38       1.0  0.15402  0.77462  0.56570  1.0000
  O   O39       1.0  0.17080  0.74111  0.54235  1.0000
  H   H58       1.0  0.17271  0.72542  0.51330  1.0000
  C   C113      1.0  0.25934  0.91041  0.34889  1.0000
  C   C114      1.0  0.26094  0.85006  0.35035  1.0000
  N   N20       1.0  0.25460  0.86282  0.42490  1.0000
  C   C115      1.0  0.25538  0.89261  0.43011  1.0000
  C   C116      1.0  0.24756  0.90171  0.51164  1.0000
  O   O40       1.0  0.23010  0.88003  0.56568  1.0000
  O   O41       1.0  0.26370  0.93032  0.54276  1.0000
  H   H59       1.0  0.27941  0.94794  0.51381  1.0000
  C   C117      1.0  0.09439  0.84987  0.34852  1.0000
  C   C118      1.0  0.15486  0.91199  0.35069  1.0000
  N   N21       1.0  0.14190  0.89267  0.42487  1.0000
  C   C119      1.0  0.11211  0.86366  0.42990  1.0000
  C   C120      1.0  0.10308  0.84675  0.51146  1.0000
  O   O42       1.0  0.12484  0.85030  0.56438  1.0000
  C   C121      1.0  0.35088  0.75851  0.34905  1.0000
  C   C122      1.0  0.41289  0.76001  0.35110  1.0000
  N   N22       1.0  0.39372  0.75383  0.42541  1.0000
  C   C123      1.0  0.36474  0.75468  0.43038  1.0000
  C   C124      1.0  0.34779  0.74693  0.51184  1.0000
  O   O43       1.0  0.35197  0.72951  0.56612  1.0000
  O   O44       1.0  0.33526  0.76306  0.54262  1.0000
  H   H60       1.0  0.33335  0.77874  0.51347  1.0000
  C   C125      1.0  0.24660  0.59348  0.34855  1.0000
  C   C126      1.0  0.24493  0.65394  0.35113  1.0000
  N   N23       1.0  0.25128  0.64093  0.42518  1.0000
  C   C127      1.0  0.25055  0.61116  0.43002  1.0000
  C   C128      1.0  0.25834  0.60194  0.51144  1.0000
  O   O45       1.0  0.27577  0.62365  0.56548  1.0000
  O   O46       1.0  0.24202  0.57337  0.54263  1.0000
  H   H61       1.0  0.22630  0.55578  0.51358  1.0000
  C   C129      1.0  0.41138  0.65399  0.34847  1.0000
  C   C130      1.0  0.35112  0.59193  0.35077  1.0000
  N   N24       1.0  0.36390  0.61118  0.42506  1.0000
  C   C131      1.0  0.39368  0.64022  0.42991  1.0000
  C   C132      1.0  0.40271  0.65719  0.51138  1.0000
  O   O47       1.0  0.38095  0.65368  0.56427  1.0000
  O   O48       1.0  0.43136  0.67005  0.54232  1.0000
  H   H62       1.0  0.44894  0.67165  0.51386  1.0000
  C   C133      1.0  0.98473  0.24275  0.31844  1.0000
  C   C134      1.0  0.93028  0.18923  0.33667  1.0000
  C   C135      1.0  0.96462  0.20680  0.31220  1.0000
  C   C136      1.0  0.52105  0.26109  0.31842  1.0000
  C   C137      1.0  0.54116  0.29705  0.31225  1.0000
  C   C138      1.0  0.57547  0.31462  0.33683  1.0000
  O   O49       1.0  0.97644  0.18695  0.28082  1.0000
  O   O50       1.0  0.52933  0.31689  0.28078  1.0000
  H   H63       1.0  0.48019  0.19147  0.21628  1.0000
  H   H64       1.0  0.87133  0.18721  0.29456  1.0000
  H   H65       1.0  0.63444  0.31671  0.29481  1.0000
  C   C139      1.0  0.76210  0.24300  0.31878  1.0000
  C   C140      1.0  0.81566  0.24211  0.33671  1.0000
  C   C141      1.0  0.79807  0.25887  0.31251  1.0000
  C   C142      1.0  0.74372  0.26095  0.31865  1.0000
  C   C143      1.0  0.70776  0.24507  0.31233  1.0000
  C   C144      1.0  0.69016  0.26186  0.33621  1.0000
  O   O51       1.0  0.81792  0.29057  0.28126  1.0000
  O   O52       1.0  0.68791  0.21335  0.28125  1.0000
  H   H66       1.0  0.81342  0.28983  0.21671  1.0000
  H   H67       1.0  0.69241  0.21404  0.21671  1.0000
  H   H68       1.0  0.81767  0.18512  0.29485  1.0000
  H   H69       1.0  0.68811  0.31876  0.29379  1.0000
  C   C145      1.0  0.76198  0.02011  0.31852  1.0000
  C   C146      1.0  0.76292  0.07456  0.33675  1.0000
  C   C147      1.0  0.74615  0.04023  0.31229  1.0000
  C   C148      1.0  0.74398  0.48378  0.31863  1.0000
  C   C149      1.0  0.75980  0.46365  0.31247  1.0000
  C   C150      1.0  0.74301  0.42931  0.33685  1.0000
  O   O53       1.0  0.71448  0.02844  0.28088  1.0000
  O   O54       1.0  0.79148  0.47545  0.28111  1.0000
  H   H70       1.0  0.71525  0.52466  0.21635  1.0000
  H   H71       1.0  0.79071  0.97918  0.21656  1.0000
  H   H72       1.0  0.81981  0.13348  0.29438  1.0000
  H   H73       1.0  0.68605  0.37040  0.29462  1.0000
  N   N25       1.0  0.63641  0.24043  0.27331  1.0000
  C   C151      1.0  0.60550  0.23740  0.27189  1.0000
  H   H74       1.0  0.59515  0.23702  0.21107  1.0000
  N   N26       1.0  0.76450  0.39715  0.27317  1.0000
  C   C152      1.0  0.76745  0.36922  0.27138  1.0000
  H   H75       1.0  0.76798  0.35946  0.21036  1.0000
  N   N27       1.0  0.60768  0.36849  0.27316  1.0000
  C   C153      1.0  0.63564  0.39933  0.27177  1.0000
  H   H76       1.0  0.64538  0.40991  0.21097  1.0000
  N   N28       1.0  0.86935  0.26347  0.27351  1.0000
  C   C154      1.0  0.90024  0.26644  0.27190  1.0000
  H   H77       1.0  0.91053  0.26678  0.21103  1.0000
  N   N29       1.0  0.74130  0.10683  0.27327  1.0000
  C   C155      1.0  0.73842  0.13479  0.27205  1.0000
  H   H78       1.0  0.73756  0.14455  0.21129  1.0000
  N   N30       1.0  0.89811  0.13531  0.27317  1.0000
  C   C156      1.0  0.87029  0.10434  0.27173  1.0000
  H   H79       1.0  0.86040  0.09390  0.21095  1.0000
  C   C157      1.0  0.96608  0.25952  0.33311  1.0000
  C   C158      1.0  0.93106  0.24288  0.34412  1.0000
  C   C159      1.0  0.91366  0.20766  0.34926  1.0000
  H   H80       1.0  0.97772  0.28459  0.34349  1.0000
  O   O55       1.0  0.87961  0.19098  0.35653  1.0000
  C   C160      1.0  0.59210  0.29620  0.34948  1.0000
  C   C161      1.0  0.57472  0.26098  0.34424  1.0000
  C   C162      1.0  0.53971  0.24432  0.33297  1.0000
  O   O56       1.0  0.62615  0.31288  0.35677  1.0000
  H   H81       1.0  0.52807  0.21926  0.34342  1.0000
  C   C163      1.0  0.74537  0.20758  0.33335  1.0000
  C   C164      1.0  0.76204  0.18923  0.34434  1.0000
  C   C165      1.0  0.79726  0.20708  0.34944  1.0000
  H   H82       1.0  0.72030  0.19413  0.34363  1.0000
  O   O57       1.0  0.81398  0.18974  0.35678  1.0000
  C   C166      1.0  0.70856  0.29690  0.34868  1.0000
  C   C167      1.0  0.74379  0.31474  0.34379  1.0000
  C   C168      1.0  0.76045  0.29637  0.33311  1.0000
  O   O58       1.0  0.69185  0.31425  0.35579  1.0000
  H   H83       1.0  0.78552  0.30982  0.34346  1.0000
  C   C169      1.0  0.79741  0.03875  0.33300  1.0000
  C   C170      1.0  0.81579  0.07376  0.34429  1.0000
  C   C171      1.0  0.79797  0.09117  0.34930  1.0000
  H   H84       1.0  0.81083  0.02710  0.34346  1.0000
  O   O59       1.0  0.81536  0.12524  0.35638  1.0000
  C   C172      1.0  0.70797  0.41272  0.34945  1.0000
  C   C173      1.0  0.69016  0.43014  0.34436  1.0000
  C   C174      1.0  0.70856  0.46515  0.33321  1.0000
  O   O60       1.0  0.69058  0.37866  0.35660  1.0000
  H   H85       1.0  0.69513  0.47681  0.34332  1.0000
  C   C175      1.0  0.65495  0.24545  0.34873  1.0000
  C   C176      1.0  0.59292  0.24388  0.35114  1.0000
  N   N31       1.0  0.61216  0.25012  0.42532  1.0000
  C   C177      1.0  0.64115  0.24928  0.43016  1.0000
  C   C178      1.0  0.65820  0.25717  0.51150  1.0000
  O   O61       1.0  0.65402  0.27462  0.56570  1.0000
  O   O62       1.0  0.67080  0.24112  0.54235  1.0000
  H   H86       1.0  0.67271  0.22542  0.51330  1.0000
  C   C179      1.0  0.75934  0.41041  0.34889  1.0000
  C   C180      1.0  0.76094  0.35006  0.35035  1.0000
  N   N32       1.0  0.75460  0.36282  0.42490  1.0000
  C   C181      1.0  0.75539  0.39262  0.43011  1.0000
  C   C182      1.0  0.74756  0.40171  0.51164  1.0000
  O   O63       1.0  0.73010  0.38003  0.56568  1.0000
  O   O64       1.0  0.76370  0.43032  0.54276  1.0000
  H   H87       1.0  0.77941  0.44794  0.51381  1.0000
  C   C183      1.0  0.59439  0.34987  0.34852  1.0000
  C   C184      1.0  0.65486  0.41199  0.35069  1.0000
  N   N33       1.0  0.64190  0.39267  0.42487  1.0000
  C   C185      1.0  0.61211  0.36366  0.42990  1.0000
  C   C186      1.0  0.60308  0.34675  0.51146  1.0000
  O   O65       1.0  0.62484  0.35030  0.56438  1.0000
  O   O66       1.0  0.57442  0.33388  0.54238  1.0000
  H   H88       1.0  0.55684  0.33225  0.51388  1.0000
  C   C187      1.0  0.85088  0.25851  0.34905  1.0000
  C   C188      1.0  0.91289  0.26001  0.35110  1.0000
  N   N34       1.0  0.89372  0.25383  0.42541  1.0000
  C   C189      1.0  0.86474  0.25468  0.43038  1.0000
  C   C190      1.0  0.84779  0.24693  0.51184  1.0000
  O   O67       1.0  0.85197  0.22951  0.56612  1.0000
  O   O68       1.0  0.83526  0.26306  0.54262  1.0000
  H   H89       1.0  0.83335  0.27874  0.51347  1.0000
  C   C191      1.0  0.74660  0.09348  0.34855  1.0000
  C   C192      1.0  0.74493  0.15394  0.35113  1.0000
  N   N35       1.0  0.75128  0.14094  0.42518  1.0000
  C   C193      1.0  0.75055  0.11116  0.43002  1.0000
  C   C194      1.0  0.75834  0.10194  0.51144  1.0000
  O   O69       1.0  0.77577  0.12365  0.56548  1.0000
  O   O70       1.0  0.74202  0.07337  0.54263  1.0000
  H   H90       1.0  0.72630  0.05578  0.51358  1.0000
  C   C195      1.0  0.91138  0.15399  0.34847  1.0000
  C   C196      1.0  0.85111  0.09193  0.35077  1.0000
  N   N36       1.0  0.86390  0.11118  0.42506  1.0000
  C   C197      1.0  0.89368  0.14022  0.42991  1.0000
  C   C198      1.0  0.90271  0.15719  0.51138  1.0000
  O   O71       1.0  0.88095  0.15368  0.56427  1.0000
  O   O72       1.0  0.93136  0.17005  0.54232  1.0000
  H   H91       1.0  0.94894  0.17165  0.51386  1.0000
  C   C199      1.0  0.98473  0.74275  0.31844  1.0000
  C   C200      1.0  0.93028  0.68923  0.33667  1.0000
  C   C201      1.0  0.96462  0.70680  0.31220  1.0000
  C   C202      1.0  0.52106  0.76109  0.31842  1.0000
  C   C203      1.0  0.54116  0.79705  0.31225  1.0000
  C   C204      1.0  0.57547  0.81463  0.33683  1.0000
  O   O73       1.0  0.97644  0.68695  0.28082  1.0000
  O   O74       1.0  0.52934  0.81689  0.28078  1.0000
  H   H92       1.0  0.48019  0.69147  0.21628  1.0000
  H   H93       1.0  0.87133  0.68720  0.29456  1.0000
  H   H94       1.0  0.63444  0.81671  0.29481  1.0000
  C   C205      1.0  0.76210  0.74300  0.31878  1.0000
  C   C206      1.0  0.81567  0.74211  0.33671  1.0000
  C   C207      1.0  0.79807  0.75887  0.31251  1.0000
  C   C208      1.0  0.74372  0.76095  0.31865  1.0000
  C   C209      1.0  0.70776  0.74507  0.31233  1.0000
  C   C210      1.0  0.69016  0.76186  0.33621  1.0000
  O   O75       1.0  0.81791  0.79057  0.28126  1.0000
  O   O76       1.0  0.68791  0.71335  0.28125  1.0000
  H   H95       1.0  0.81342  0.78983  0.21671  1.0000
  H   H96       1.0  0.69241  0.71404  0.21671  1.0000
  H   H97       1.0  0.81767  0.68512  0.29485  1.0000
  H   H98       1.0  0.68811  0.81876  0.29379  1.0000
  C   C211      1.0  0.76198  0.52011  0.31852  1.0000
  C   C212      1.0  0.76292  0.57456  0.33675  1.0000
  C   C213      1.0  0.74615  0.54023  0.31229  1.0000
  C   C214      1.0  0.74398  0.98378  0.31863  1.0000
  C   C215      1.0  0.75980  0.96365  0.31247  1.0000
  C   C216      1.0  0.74301  0.92931  0.33685  1.0000
  O   O77       1.0  0.71448  0.52843  0.28088  1.0000
  O   O78       1.0  0.79148  0.97544  0.28111  1.0000
  H   H99       1.0  0.71525  0.02466  0.21635  1.0000
  H   H100      1.0  0.79072  0.47919  0.21656  1.0000
  H   H101      1.0  0.81981  0.63348  0.29438  1.0000
  H   H102      1.0  0.68605  0.87040  0.29462  1.0000
  N   N37       1.0  0.63641  0.74042  0.27331  1.0000
  C   C217      1.0  0.60550  0.73740  0.27189  1.0000
  H   H103      1.0  0.59515  0.73702  0.21107  1.0000
  N   N38       1.0  0.76450  0.89715  0.27317  1.0000
  C   C218      1.0  0.76745  0.86922  0.27138  1.0000
  H   H104      1.0  0.76798  0.85946  0.21036  1.0000
  N   N39       1.0  0.60768  0.86848  0.27316  1.0000
  C   C219      1.0  0.63564  0.89933  0.27177  1.0000
  H   H105      1.0  0.64538  0.90991  0.21097  1.0000
  N   N40       1.0  0.86935  0.76347  0.27351  1.0000
  C   C220      1.0  0.90024  0.76644  0.27190  1.0000
  H   H106      1.0  0.91053  0.76678  0.21103  1.0000
  N   N41       1.0  0.74130  0.60683  0.27327  1.0000
  C   C221      1.0  0.73842  0.63479  0.27205  1.0000
  H   H107      1.0  0.73756  0.64455  0.21129  1.0000
  N   N42       1.0  0.89811  0.63531  0.27317  1.0000
  C   C222      1.0  0.87029  0.60434  0.27173  1.0000
  H   H108      1.0  0.86041  0.59390  0.21095  1.0000
  C   C223      1.0  0.96608  0.75952  0.33311  1.0000
  C   C224      1.0  0.93106  0.74288  0.34412  1.0000
  C   C225      1.0  0.91366  0.70766  0.34926  1.0000
  H   H109      1.0  0.97773  0.78459  0.34349  1.0000
  O   O79       1.0  0.87961  0.69098  0.35653  1.0000
  C   C226      1.0  0.59210  0.79620  0.34948  1.0000
  C   C227      1.0  0.57472  0.76098  0.34424  1.0000
  C   C228      1.0  0.53971  0.74432  0.33297  1.0000
  O   O80       1.0  0.62615  0.81288  0.35677  1.0000
  H   H110      1.0  0.52807  0.71926  0.34342  1.0000
  C   C229      1.0  0.74537  0.70758  0.33335  1.0000
  C   C230      1.0  0.76204  0.68923  0.34434  1.0000
  C   C231      1.0  0.79726  0.70708  0.34944  1.0000
  H   H111      1.0  0.72030  0.69413  0.34363  1.0000
  O   O81       1.0  0.81398  0.68974  0.35678  1.0000
  C   C232      1.0  0.70856  0.79690  0.34868  1.0000
  C   C233      1.0  0.74379  0.81474  0.34379  1.0000
  C   C234      1.0  0.76045  0.79637  0.33311  1.0000
  O   O82       1.0  0.69185  0.81425  0.35579  1.0000
  H   H112      1.0  0.78552  0.80982  0.34346  1.0000
  C   C235      1.0  0.79741  0.53875  0.33300  1.0000
  C   C236      1.0  0.81579  0.57376  0.34429  1.0000
  C   C237      1.0  0.79797  0.59117  0.34930  1.0000
  H   H113      1.0  0.81083  0.52710  0.34346  1.0000
  O   O83       1.0  0.81536  0.62523  0.35638  1.0000
  C   C238      1.0  0.70797  0.91272  0.34945  1.0000
  C   C239      1.0  0.69016  0.93014  0.34436  1.0000
  C   C240      1.0  0.70856  0.96515  0.33321  1.0000
  O   O84       1.0  0.69058  0.87866  0.35660  1.0000
  H   H114      1.0  0.69513  0.97681  0.34332  1.0000
  C   C241      1.0  0.65495  0.74545  0.34873  1.0000
  C   C242      1.0  0.59292  0.74387  0.35114  1.0000
  N   N43       1.0  0.61216  0.75012  0.42532  1.0000
  C   C243      1.0  0.64115  0.74928  0.43016  1.0000
  C   C244      1.0  0.65820  0.75717  0.51150  1.0000
  O   O85       1.0  0.65402  0.77462  0.56570  1.0000
  O   O86       1.0  0.67080  0.74111  0.54235  1.0000
  H   H115      1.0  0.67272  0.72542  0.51330  1.0000
  C   C245      1.0  0.75934  0.91041  0.34889  1.0000
  C   C246      1.0  0.76094  0.85006  0.35035  1.0000
  N   N44       1.0  0.75460  0.86282  0.42490  1.0000
  C   C247      1.0  0.75538  0.89261  0.43011  1.0000
  C   C248      1.0  0.74756  0.90171  0.51164  1.0000
  O   O87       1.0  0.73010  0.88003  0.56568  1.0000
  O   O88       1.0  0.76370  0.93032  0.54276  1.0000
  H   H116      1.0  0.77941  0.94794  0.51381  1.0000
  C   C249      1.0  0.59439  0.84987  0.34852  1.0000
  C   C250      1.0  0.65486  0.91199  0.35069  1.0000
  N   N45       1.0  0.64190  0.89267  0.42487  1.0000
  C   C251      1.0  0.61211  0.86366  0.42990  1.0000
  C   C252      1.0  0.60308  0.84675  0.51146  1.0000
  O   O89       1.0  0.62484  0.85030  0.56438  1.0000
  O   O90       1.0  0.57442  0.83388  0.54238  1.0000
  H   H117      1.0  0.55684  0.83225  0.51388  1.0000
  C   C253      1.0  0.85088  0.75851  0.34905  1.0000
  C   C254      1.0  0.91289  0.76001  0.35110  1.0000
  N   N46       1.0  0.89372  0.75383  0.42541  1.0000
  C   C255      1.0  0.86474  0.75468  0.43038  1.0000
  C   C256      1.0  0.84779  0.74693  0.51184  1.0000
  O   O91       1.0  0.85197  0.72951  0.56612  1.0000
  O   O92       1.0  0.83526  0.76306  0.54262  1.0000
  H   H118      1.0  0.83335  0.77874  0.51347  1.0000
  C   C257      1.0  0.74660  0.59348  0.34855  1.0000
  C   C258      1.0  0.74493  0.65394  0.35113  1.0000
  N   N47       1.0  0.75128  0.64093  0.42518  1.0000
  C   C259      1.0  0.75055  0.61116  0.43002  1.0000
  C   C260      1.0  0.75834  0.60194  0.51144  1.0000
  O   O93       1.0  0.77577  0.62365  0.56548  1.0000
  O   O94       1.0  0.74202  0.57337  0.54263  1.0000
  H   H119      1.0  0.72630  0.55578  0.51358  1.0000
  C   C261      1.0  0.91138  0.65399  0.34847  1.0000
  C   C262      1.0  0.85111  0.59193  0.35077  1.0000
  N   N48       1.0  0.86390  0.61118  0.42506  1.0000
  C   C263      1.0  0.89368  0.64022  0.42991  1.0000
  C   C264      1.0  0.90271  0.65719  0.51138  1.0000
  O   O95       1.0  0.88095  0.65368  0.56427  1.0000
  O   O96       1.0  0.93136  0.67005  0.54232  1.0000
  H   H120      1.0  0.94894  0.67165  0.51386  1.0000
