data_image0
_chemical_formula_structural       C6SiC8H12C5H3CH7C10H4C2H2C7H2CH2C6SiC8H12C5H3CH7C10H4C2H2C7H2CH2C6SiC8H12C5H3CH7C10H4C2H2C7H2CH2C6SiC8H12C5H3CH7C10H4C2H2C7H2CH2C6SiC8H12C5H3CH7C10H4C2H2C7H2CH2C6SiC8H12C5H3CH7C10H4C2H2C7H2CH2C6SiC8H12C5H3CH7C10H4C2H2C7H2CH2C6SiC8H12C5H3CH7C10H4C2H2C7H2CH2C6SiC8H12C5H3CH7C10H4C2H2C7H2CH2
_chemical_formula_sum              "C360 Si9 H288"
_cell_length_a       36.498
_cell_length_b       36.4986
_cell_length_c       15.1215
_cell_angle_alpha    90
_cell_angle_beta     90
_cell_angle_gamma    89.9302

_space_group_name_H-M_alt    "P 1"
_space_group_IT_number       1

loop_
  _space_group_symop_operation_xyz
  'x, y, z'

loop_
  _atom_site_type_symbol
  _atom_site_label
  _atom_site_symmetry_multiplicity
  _atom_site_fract_x
  _atom_site_fract_y
  _atom_site_fract_z
  _atom_site_occupancy
  C   C1        1.0  0.99871  0.23717  0.29647  1.0000
  C   C2        1.0  0.03107  0.25638  0.27566  1.0000
  C   C3        1.0  0.02963  0.28440  0.21208  1.0000
  C   C4        1.0  0.99608  0.29353  0.17016  1.0000
  C   C5        1.0  0.29658  0.27951  0.20648  1.0000
  C   C6        1.0  0.29781  0.25154  0.26977  1.0000
  Si  Si1       1.0  0.99462  0.99445  0.09916  1.0000
  C   C7        1.0  0.99442  0.02790  0.17251  1.0000
  C   C8        1.0  0.29520  0.03597  0.21990  1.0000
  C   C9        1.0  0.29475  0.06371  0.28414  1.0000
  C   C10       1.0  0.99351  0.08426  0.29889  1.0000
  C   C11       1.0  0.02735  0.07155  0.26523  1.0000
  C   C12       1.0  0.02771  0.04347  0.20201  1.0000
  C   C13       1.0  0.02841  0.99535  0.02624  1.0000
  C   C14       1.0  0.29260  0.32908  0.03079  1.0000
  H   H1        1.0  0.29226  0.05396  0.01601  1.0000
  H   H2        1.0  0.28662  0.27129  0.01530  1.0000
  H   H3        1.0  0.03708  0.27092  0.01991  1.0000
  H   H4        1.0  0.02601  0.05297  0.00246  1.0000
  H   H5        1.0  0.05223  0.03697  0.17308  1.0000
  H   H6        1.0  0.05069  0.08684  0.27248  1.0000
  H   H7        1.0  0.26988  0.07344  0.30514  1.0000
  H   H8        1.0  0.27070  0.02418  0.20319  1.0000
  H   H9        1.0  0.27143  0.28716  0.18281  1.0000
  H   H10       1.0  0.05391  0.29562  0.19164  1.0000
  H   H11       1.0  0.05615  0.24544  0.29077  1.0000
  H   H12       1.0  0.27405  0.23754  0.28256  1.0000
  C   C15       1.0  0.33377  0.19867  0.29672  1.0000
  C   C16       1.0  0.32326  0.12269  0.29961  1.0000
  C   C17       1.0  0.32060  0.14181  0.21734  1.0000
  C   C18       1.0  0.33060  0.17931  0.21493  1.0000
  C   C19       1.0  0.30604  0.12333  0.13583  1.0000
  H   H13       1.0  0.28132  0.10795  0.15118  1.0000
  H   H14       1.0  0.99332  0.10502  0.10817  1.0000
  H   H15       1.0  0.29745  0.14230  0.08425  1.0000
  C   C20       1.0  0.33979  0.19733  0.12838  1.0000
  H   H16       1.0  0.36420  0.21418  0.13446  1.0000
  H   H17       1.0  0.31693  0.21414  0.10581  1.0000
  H   H18       1.0  0.01337  0.17787  0.07634  1.0000
  H   H19       1.0  0.19044  0.01939  0.01698  1.0000
  H   H20       1.0  0.12682  0.01910  0.01352  1.0000
  H   H21       1.0  0.19516  0.32904  0.33612  1.0000
  H   H22       1.0  0.12850  0.32813  0.33277  1.0000
  C   C21       1.0  0.28179  0.02969  0.66030  1.0000
  C   C22       1.0  0.25474  0.03131  0.59471  1.0000
  C   C23       1.0  0.23668  0.33232  0.56766  1.0000
  C   C24       1.0  0.24973  0.29810  0.59803  1.0000
  C   C25       1.0  0.27829  0.29652  0.66023  1.0000
  C   C26       1.0  0.04379  0.29580  0.65996  1.0000
  C   C27       1.0  0.07154  0.29684  0.59564  1.0000
  C   C28       1.0  0.08318  0.99740  0.56018  1.0000
  C   C29       1.0  0.06364  0.02955  0.58229  1.0000
  C   C30       1.0  0.03716  0.02857  0.64938  1.0000
  H   H23       1.0  0.24453  0.05647  0.57729  1.0000
  H   H24       1.0  0.23610  0.27441  0.58273  1.0000
  H   H25       1.0  0.08626  0.27342  0.58395  1.0000
  H   H26       1.0  0.07304  0.05461  0.56194  1.0000
  C   C31       1.0  0.99925  0.17998  0.37813  1.0000
  C   C32       1.0  0.99679  0.14169  0.37896  1.0000
  H   H27       1.0  0.99881  0.12799  0.43787  1.0000
  H   H28       1.0  0.00199  0.19382  0.43666  1.0000
  C   C33       1.0  0.12133  0.33431  0.54639  1.0000
  C   C34       1.0  0.14029  0.01242  0.62278  1.0000
  C   C35       1.0  0.17814  0.01251  0.62491  1.0000
  C   C36       1.0  0.19867  0.33488  0.55046  1.0000
  C   C37       1.0  0.18045  0.32337  0.47172  1.0000
  C   C38       1.0  0.14111  0.32299  0.46974  1.0000
  C   C39       1.0  0.20216  0.31180  0.39261  1.0000
  H   H29       1.0  0.23170  0.31391  0.40181  1.0000
  H   H30       1.0  0.19606  0.28332  0.37645  1.0000
  C   C40       1.0  0.12099  0.31085  0.38876  1.0000
  H   H31       1.0  0.09127  0.31236  0.39516  1.0000
  H   H32       1.0  0.12799  0.28247  0.37352  1.0000
  C   C41       1.0  0.99871  0.57051  0.29647  1.0000
  C   C42       1.0  0.03107  0.58972  0.27566  1.0000
  C   C43       1.0  0.02963  0.61773  0.21209  1.0000
  C   C44       1.0  0.99608  0.62686  0.17016  1.0000
  C   C45       1.0  0.29658  0.61284  0.20648  1.0000
  C   C46       1.0  0.29781  0.58487  0.26977  1.0000
  Si  Si2       1.0  0.99461  0.32779  0.09916  1.0000
  C   C47       1.0  0.99442  0.36123  0.17252  1.0000
  C   C48       1.0  0.29519  0.36930  0.21990  1.0000
  C   C49       1.0  0.29475  0.39704  0.28414  1.0000
  C   C50       1.0  0.99350  0.41759  0.29889  1.0000
  C   C51       1.0  0.02735  0.40488  0.26523  1.0000
  C   C52       1.0  0.02770  0.37680  0.20201  1.0000
  C   C53       1.0  0.02841  0.32868  0.02624  1.0000
  C   C54       1.0  0.29260  0.66242  0.03079  1.0000
  H   H33       1.0  0.29226  0.38729  0.01601  1.0000
  H   H34       1.0  0.28662  0.60463  0.01530  1.0000
  H   H35       1.0  0.03708  0.60425  0.01991  1.0000
  H   H36       1.0  0.02601  0.38631  0.00246  1.0000
  H   H37       1.0  0.05223  0.37030  0.17308  1.0000
  H   H38       1.0  0.05069  0.42018  0.27248  1.0000
  H   H39       1.0  0.26988  0.40678  0.30514  1.0000
  H   H40       1.0  0.27070  0.35752  0.20320  1.0000
  H   H41       1.0  0.27143  0.62049  0.18281  1.0000
  H   H42       1.0  0.05391  0.62896  0.19164  1.0000
  H   H43       1.0  0.05615  0.57877  0.29077  1.0000
  H   H44       1.0  0.27405  0.57087  0.28256  1.0000
  C   C55       1.0  0.33377  0.53200  0.29672  1.0000
  C   C56       1.0  0.32326  0.45602  0.29961  1.0000
  C   C57       1.0  0.32059  0.47514  0.21734  1.0000
  C   C58       1.0  0.33060  0.51264  0.21493  1.0000
  C   C59       1.0  0.30604  0.45666  0.13583  1.0000
  H   H45       1.0  0.28132  0.44129  0.15118  1.0000
  H   H46       1.0  0.99332  0.43835  0.10817  1.0000
  H   H47       1.0  0.29745  0.47563  0.08425  1.0000
  C   C60       1.0  0.33979  0.53067  0.12838  1.0000
  H   H48       1.0  0.36420  0.54751  0.13446  1.0000
  H   H49       1.0  0.31693  0.54747  0.10581  1.0000
  H   H50       1.0  0.01337  0.51120  0.07634  1.0000
  H   H51       1.0  0.19044  0.35273  0.01698  1.0000
  H   H52       1.0  0.12682  0.35244  0.01352  1.0000
  H   H53       1.0  0.19516  0.66237  0.33612  1.0000
  H   H54       1.0  0.12850  0.66147  0.33278  1.0000
  C   C61       1.0  0.28179  0.36302  0.66029  1.0000
  C   C62       1.0  0.25473  0.36464  0.59471  1.0000
  C   C63       1.0  0.23668  0.66565  0.56766  1.0000
  C   C64       1.0  0.24973  0.63143  0.59803  1.0000
  C   C65       1.0  0.27829  0.62986  0.66023  1.0000
  C   C66       1.0  0.04379  0.62913  0.65996  1.0000
  C   C67       1.0  0.07154  0.63017  0.59564  1.0000
  C   C68       1.0  0.08318  0.33073  0.56019  1.0000
  C   C69       1.0  0.06363  0.36289  0.58229  1.0000
  C   C70       1.0  0.03715  0.36190  0.64939  1.0000
  H   H55       1.0  0.24453  0.38980  0.57728  1.0000
  H   H56       1.0  0.23610  0.60774  0.58273  1.0000
  H   H57       1.0  0.08626  0.60675  0.58395  1.0000
  H   H58       1.0  0.07303  0.38795  0.56194  1.0000
  C   C71       1.0  0.99925  0.51331  0.37813  1.0000
  C   C72       1.0  0.99679  0.47503  0.37896  1.0000
  H   H59       1.0  0.99881  0.46132  0.43787  1.0000
  H   H60       1.0  0.00199  0.52716  0.43666  1.0000
  C   C73       1.0  0.12133  0.66765  0.54639  1.0000
  C   C74       1.0  0.14029  0.34575  0.62278  1.0000
  C   C75       1.0  0.17814  0.34584  0.62490  1.0000
  C   C76       1.0  0.19867  0.66821  0.55046  1.0000
  C   C77       1.0  0.18045  0.65670  0.47172  1.0000
  C   C78       1.0  0.14111  0.65632  0.46974  1.0000
  C   C79       1.0  0.20216  0.64513  0.39261  1.0000
  H   H61       1.0  0.23170  0.64724  0.40181  1.0000
  H   H62       1.0  0.19606  0.61665  0.37645  1.0000
  C   C80       1.0  0.12099  0.64418  0.38876  1.0000
  H   H63       1.0  0.09127  0.64569  0.39516  1.0000
  H   H64       1.0  0.12799  0.61581  0.37352  1.0000
  C   C81       1.0  0.99871  0.90384  0.29647  1.0000
  C   C82       1.0  0.03107  0.92305  0.27566  1.0000
  C   C83       1.0  0.02964  0.95107  0.21208  1.0000
  C   C84       1.0  0.99609  0.96019  0.17016  1.0000
  C   C85       1.0  0.29658  0.94618  0.20648  1.0000
  C   C86       1.0  0.29781  0.91820  0.26976  1.0000
  Si  Si3       1.0  0.99461  0.66112  0.09916  1.0000
  C   C87       1.0  0.99442  0.69457  0.17252  1.0000
  C   C88       1.0  0.29519  0.70264  0.21990  1.0000
  C   C89       1.0  0.29475  0.73038  0.28414  1.0000
  C   C90       1.0  0.99351  0.75092  0.29889  1.0000
  C   C91       1.0  0.02735  0.73821  0.26523  1.0000
  C   C92       1.0  0.02770  0.71013  0.20201  1.0000
  C   C93       1.0  0.02841  0.66201  0.02624  1.0000
  C   C94       1.0  0.29260  0.99575  0.03079  1.0000
  H   H65       1.0  0.29226  0.72062  0.01601  1.0000
  H   H66       1.0  0.28662  0.93796  0.01530  1.0000
  H   H67       1.0  0.03709  0.93759  0.01991  1.0000
  H   H68       1.0  0.02601  0.71964  0.00246  1.0000
  H   H69       1.0  0.05223  0.70363  0.17308  1.0000
  H   H70       1.0  0.05069  0.75351  0.27248  1.0000
  H   H71       1.0  0.26988  0.74011  0.30514  1.0000
  H   H72       1.0  0.27070  0.69085  0.20320  1.0000
  H   H73       1.0  0.27143  0.95383  0.18281  1.0000
  H   H74       1.0  0.05391  0.96229  0.19164  1.0000
  H   H75       1.0  0.05615  0.91210  0.29077  1.0000
  H   H76       1.0  0.27405  0.90421  0.28256  1.0000
  C   C95       1.0  0.33377  0.86533  0.29672  1.0000
  C   C96       1.0  0.32326  0.78935  0.29961  1.0000
  C   C97       1.0  0.32059  0.80847  0.21734  1.0000
  C   C98       1.0  0.33061  0.84598  0.21493  1.0000
  C   C99       1.0  0.30604  0.78999  0.13583  1.0000
  H   H77       1.0  0.28132  0.77462  0.15118  1.0000
  H   H78       1.0  0.99332  0.77169  0.10817  1.0000
  H   H79       1.0  0.29745  0.80897  0.08425  1.0000
  C   C100      1.0  0.33979  0.86400  0.12838  1.0000
  H   H80       1.0  0.36420  0.88084  0.13446  1.0000
  H   H81       1.0  0.31693  0.88080  0.10581  1.0000
  H   H82       1.0  0.01337  0.84454  0.07634  1.0000
  H   H83       1.0  0.19044  0.68606  0.01698  1.0000
  H   H84       1.0  0.12682  0.68577  0.01352  1.0000
  H   H85       1.0  0.19517  0.99571  0.33613  1.0000
  H   H86       1.0  0.12850  0.99481  0.33277  1.0000
  C   C101      1.0  0.28179  0.69636  0.66029  1.0000
  C   C102      1.0  0.25473  0.69798  0.59471  1.0000
  C   C103      1.0  0.23669  0.99899  0.56767  1.0000
  C   C104      1.0  0.24973  0.96477  0.59803  1.0000
  C   C105      1.0  0.27830  0.96319  0.66022  1.0000
  C   C106      1.0  0.04379  0.96247  0.65996  1.0000
  C   C107      1.0  0.07154  0.96351  0.59564  1.0000
  C   C108      1.0  0.08318  0.66406  0.56019  1.0000
  C   C109      1.0  0.06363  0.69622  0.58229  1.0000
  C   C110      1.0  0.03715  0.69523  0.64939  1.0000
  H   H87       1.0  0.24453  0.72313  0.57728  1.0000
  H   H88       1.0  0.23611  0.94108  0.58273  1.0000
  H   H89       1.0  0.08626  0.94008  0.58394  1.0000
  H   H90       1.0  0.07303  0.72128  0.56194  1.0000
  C   C111      1.0  0.99925  0.84664  0.37813  1.0000
  C   C112      1.0  0.99679  0.80836  0.37896  1.0000
  H   H91       1.0  0.99881  0.79466  0.43787  1.0000
  H   H92       1.0  0.00199  0.86049  0.43666  1.0000
  C   C113      1.0  0.12133  0.00098  0.54639  1.0000
  C   C114      1.0  0.14029  0.67909  0.62278  1.0000
  C   C115      1.0  0.17814  0.67917  0.62490  1.0000
  C   C116      1.0  0.19867  0.00155  0.55046  1.0000
  C   C117      1.0  0.18045  0.99004  0.47172  1.0000
  C   C118      1.0  0.14111  0.98966  0.46973  1.0000
  C   C119      1.0  0.20216  0.97847  0.39261  1.0000
  H   H93       1.0  0.23171  0.98058  0.40181  1.0000
  H   H94       1.0  0.19607  0.94999  0.37644  1.0000
  C   C120      1.0  0.12099  0.97752  0.38875  1.0000
  H   H95       1.0  0.09128  0.97903  0.39515  1.0000
  H   H96       1.0  0.12799  0.94915  0.37351  1.0000
  C   C121      1.0  0.33204  0.23717  0.29647  1.0000
  C   C122      1.0  0.36441  0.25638  0.27566  1.0000
  C   C123      1.0  0.36297  0.28440  0.21208  1.0000
  C   C124      1.0  0.32942  0.29353  0.17016  1.0000
  C   C125      1.0  0.62991  0.27951  0.20648  1.0000
  C   C126      1.0  0.63114  0.25154  0.26977  1.0000
  Si  Si4       1.0  0.32795  0.99445  0.09916  1.0000
  C   C127      1.0  0.32775  0.02790  0.17251  1.0000
  C   C128      1.0  0.62853  0.03597  0.21990  1.0000
  C   C129      1.0  0.62809  0.06371  0.28414  1.0000
  C   C130      1.0  0.32684  0.08426  0.29889  1.0000
  C   C131      1.0  0.36069  0.07155  0.26523  1.0000
  C   C132      1.0  0.36104  0.04347  0.20201  1.0000
  C   C133      1.0  0.36174  0.99535  0.02624  1.0000
  C   C134      1.0  0.62593  0.32908  0.03079  1.0000
  H   H97       1.0  0.62560  0.05396  0.01601  1.0000
  H   H98       1.0  0.61995  0.27129  0.01530  1.0000
  H   H99       1.0  0.37042  0.27092  0.01991  1.0000
  H   H100      1.0  0.35935  0.05297  0.00246  1.0000
  H   H101      1.0  0.38556  0.03697  0.17308  1.0000
  H   H102      1.0  0.38403  0.08684  0.27248  1.0000
  H   H103      1.0  0.60322  0.07344  0.30514  1.0000
  H   H104      1.0  0.60404  0.02418  0.20319  1.0000
  H   H105      1.0  0.60476  0.28716  0.18281  1.0000
  H   H106      1.0  0.38725  0.29562  0.19164  1.0000
  H   H107      1.0  0.38948  0.24544  0.29077  1.0000
  H   H108      1.0  0.60738  0.23754  0.28256  1.0000
  C   C135      1.0  0.66710  0.19867  0.29672  1.0000
  C   C136      1.0  0.65659  0.12269  0.29961  1.0000
  C   C137      1.0  0.65393  0.14181  0.21734  1.0000
  C   C138      1.0  0.66394  0.17931  0.21493  1.0000
  C   C139      1.0  0.63937  0.12333  0.13583  1.0000
  H   H109      1.0  0.61465  0.10795  0.15118  1.0000
  H   H110      1.0  0.32665  0.10502  0.10817  1.0000
  H   H111      1.0  0.63078  0.14230  0.08425  1.0000
  C   C140      1.0  0.67312  0.19733  0.12838  1.0000
  H   H112      1.0  0.69753  0.21418  0.13446  1.0000
  H   H113      1.0  0.65026  0.21414  0.10581  1.0000
  H   H114      1.0  0.34671  0.17787  0.07634  1.0000
  H   H115      1.0  0.52377  0.01939  0.01698  1.0000
  H   H116      1.0  0.46015  0.01910  0.01352  1.0000
  H   H117      1.0  0.52850  0.32904  0.33612  1.0000
  H   H118      1.0  0.46183  0.32813  0.33277  1.0000
  C   C141      1.0  0.61512  0.02969  0.66030  1.0000
  C   C142      1.0  0.58807  0.03131  0.59471  1.0000
  C   C143      1.0  0.57002  0.33232  0.56766  1.0000
  C   C144      1.0  0.58306  0.29810  0.59803  1.0000
  C   C145      1.0  0.61163  0.29652  0.66023  1.0000
  C   C146      1.0  0.37712  0.29580  0.65996  1.0000
  C   C147      1.0  0.40487  0.29684  0.59564  1.0000
  C   C148      1.0  0.41652  0.99740  0.56018  1.0000
  C   C149      1.0  0.39697  0.02955  0.58229  1.0000
  C   C150      1.0  0.37049  0.02857  0.64938  1.0000
  H   H119      1.0  0.57787  0.05647  0.57729  1.0000
  H   H120      1.0  0.56944  0.27441  0.58273  1.0000
  H   H121      1.0  0.41959  0.27342  0.58395  1.0000
  H   H122      1.0  0.40637  0.05461  0.56194  1.0000
  C   C151      1.0  0.33259  0.17998  0.37813  1.0000
  C   C152      1.0  0.33013  0.14169  0.37896  1.0000
  H   H123      1.0  0.33214  0.12799  0.43787  1.0000
  H   H124      1.0  0.33532  0.19382  0.43666  1.0000
  C   C153      1.0  0.45466  0.33431  0.54639  1.0000
  C   C154      1.0  0.47362  0.01242  0.62278  1.0000
  C   C155      1.0  0.51147  0.01251  0.62491  1.0000
  C   C156      1.0  0.53200  0.33488  0.55046  1.0000
  C   C157      1.0  0.51379  0.32337  0.47172  1.0000
  C   C158      1.0  0.47444  0.32299  0.46974  1.0000
  C   C159      1.0  0.53549  0.31180  0.39261  1.0000
  H   H125      1.0  0.56503  0.31391  0.40181  1.0000
  H   H126      1.0  0.52940  0.28332  0.37645  1.0000
  C   C160      1.0  0.45432  0.31085  0.38876  1.0000
  H   H127      1.0  0.42461  0.31236  0.39516  1.0000
  H   H128      1.0  0.46132  0.28247  0.37352  1.0000
  C   C161      1.0  0.33204  0.57051  0.29647  1.0000
  C   C162      1.0  0.36441  0.58972  0.27566  1.0000
  C   C163      1.0  0.36297  0.61773  0.21209  1.0000
  C   C164      1.0  0.32942  0.62686  0.17016  1.0000
  C   C165      1.0  0.62991  0.61284  0.20648  1.0000
  C   C166      1.0  0.63114  0.58487  0.26977  1.0000
  Si  Si5       1.0  0.32794  0.32779  0.09916  1.0000
  C   C167      1.0  0.32775  0.36123  0.17252  1.0000
  C   C168      1.0  0.62853  0.36930  0.21990  1.0000
  C   C169      1.0  0.62808  0.39704  0.28414  1.0000
  C   C170      1.0  0.32684  0.41759  0.29889  1.0000
  C   C171      1.0  0.36068  0.40488  0.26523  1.0000
  C   C172      1.0  0.36104  0.37680  0.20201  1.0000
  C   C173      1.0  0.36174  0.32868  0.02624  1.0000
  C   C174      1.0  0.62593  0.66242  0.03079  1.0000
  H   H129      1.0  0.62559  0.38729  0.01601  1.0000
  H   H130      1.0  0.61995  0.60463  0.01530  1.0000
  H   H131      1.0  0.37042  0.60425  0.01991  1.0000
  H   H132      1.0  0.35934  0.38631  0.00246  1.0000
  H   H133      1.0  0.38556  0.37030  0.17308  1.0000
  H   H134      1.0  0.38403  0.42018  0.27248  1.0000
  H   H135      1.0  0.60322  0.40678  0.30514  1.0000
  H   H136      1.0  0.60403  0.35752  0.20320  1.0000
  H   H137      1.0  0.60476  0.62049  0.18281  1.0000
  H   H138      1.0  0.38724  0.62896  0.19164  1.0000
  H   H139      1.0  0.38948  0.57877  0.29077  1.0000
  H   H140      1.0  0.60738  0.57087  0.28256  1.0000
  C   C175      1.0  0.66710  0.53200  0.29672  1.0000
  C   C176      1.0  0.65659  0.45602  0.29961  1.0000
  C   C177      1.0  0.65393  0.47514  0.21734  1.0000
  C   C178      1.0  0.66394  0.51264  0.21493  1.0000
  C   C179      1.0  0.63937  0.45666  0.13583  1.0000
  H   H141      1.0  0.61465  0.44129  0.15118  1.0000
  H   H142      1.0  0.32665  0.43835  0.10817  1.0000
  H   H143      1.0  0.63078  0.47563  0.08425  1.0000
  C   C180      1.0  0.67312  0.53067  0.12838  1.0000
  H   H144      1.0  0.69753  0.54751  0.13446  1.0000
  H   H145      1.0  0.65026  0.54747  0.10581  1.0000
  H   H146      1.0  0.34671  0.51120  0.07634  1.0000
  H   H147      1.0  0.52377  0.35273  0.01698  1.0000
  H   H148      1.0  0.46015  0.35244  0.01352  1.0000
  H   H149      1.0  0.52850  0.66237  0.33612  1.0000
  H   H150      1.0  0.46183  0.66147  0.33278  1.0000
  C   C181      1.0  0.61512  0.36302  0.66029  1.0000
  C   C182      1.0  0.58807  0.36464  0.59471  1.0000
  C   C183      1.0  0.57002  0.66565  0.56766  1.0000
  C   C184      1.0  0.58306  0.63143  0.59803  1.0000
  C   C185      1.0  0.61162  0.62986  0.66023  1.0000
  C   C186      1.0  0.37712  0.62913  0.65996  1.0000
  C   C187      1.0  0.40487  0.63017  0.59564  1.0000
  C   C188      1.0  0.41652  0.33073  0.56019  1.0000
  C   C189      1.0  0.39697  0.36289  0.58229  1.0000
  C   C190      1.0  0.37049  0.36190  0.64939  1.0000
  H   H151      1.0  0.57787  0.38980  0.57728  1.0000
  H   H152      1.0  0.56944  0.60774  0.58273  1.0000
  H   H153      1.0  0.41959  0.60675  0.58395  1.0000
  H   H154      1.0  0.40637  0.38795  0.56194  1.0000
  C   C191      1.0  0.33259  0.51331  0.37813  1.0000
  C   C192      1.0  0.33012  0.47503  0.37896  1.0000
  H   H155      1.0  0.33214  0.46132  0.43787  1.0000
  H   H156      1.0  0.33532  0.52716  0.43666  1.0000
  C   C193      1.0  0.45466  0.66765  0.54639  1.0000
  C   C194      1.0  0.47362  0.34575  0.62278  1.0000
  C   C195      1.0  0.51147  0.34584  0.62490  1.0000
  C   C196      1.0  0.53200  0.66821  0.55046  1.0000
  C   C197      1.0  0.51378  0.65670  0.47172  1.0000
  C   C198      1.0  0.47444  0.65632  0.46974  1.0000
  C   C199      1.0  0.53549  0.64513  0.39261  1.0000
  H   H157      1.0  0.56503  0.64724  0.40181  1.0000
  H   H158      1.0  0.52940  0.61665  0.37645  1.0000
  C   C200      1.0  0.45432  0.64418  0.38876  1.0000
  H   H159      1.0  0.42461  0.64569  0.39516  1.0000
  H   H160      1.0  0.46132  0.61581  0.37352  1.0000
  C   C201      1.0  0.33204  0.90384  0.29647  1.0000
  C   C202      1.0  0.36441  0.92305  0.27566  1.0000
  C   C203      1.0  0.36297  0.95107  0.21208  1.0000
  C   C204      1.0  0.32942  0.96019  0.17016  1.0000
  C   C205      1.0  0.62992  0.94618  0.20648  1.0000
  C   C206      1.0  0.63114  0.91820  0.26976  1.0000
  Si  Si6       1.0  0.32794  0.66112  0.09916  1.0000
  C   C207      1.0  0.32775  0.69457  0.17252  1.0000
  C   C208      1.0  0.62853  0.70264  0.21990  1.0000
  C   C209      1.0  0.62808  0.73038  0.28414  1.0000
  C   C210      1.0  0.32684  0.75092  0.29889  1.0000
  C   C211      1.0  0.36068  0.73821  0.26523  1.0000
  C   C212      1.0  0.36104  0.71013  0.20201  1.0000
  C   C213      1.0  0.36174  0.66201  0.02624  1.0000
  C   C214      1.0  0.62594  0.99575  0.03079  1.0000
  H   H161      1.0  0.62559  0.72062  0.01601  1.0000
  H   H162      1.0  0.61995  0.93796  0.01530  1.0000
  H   H163      1.0  0.37042  0.93759  0.01991  1.0000
  H   H164      1.0  0.35934  0.71964  0.00246  1.0000
  H   H165      1.0  0.38556  0.70363  0.17308  1.0000
  H   H166      1.0  0.38403  0.75351  0.27248  1.0000
  H   H167      1.0  0.60322  0.74011  0.30514  1.0000
  H   H168      1.0  0.60403  0.69085  0.20320  1.0000
  H   H169      1.0  0.60476  0.95383  0.18281  1.0000
  H   H170      1.0  0.38725  0.96229  0.19164  1.0000
  H   H171      1.0  0.38949  0.91210  0.29077  1.0000
  H   H172      1.0  0.60738  0.90421  0.28256  1.0000
  C   C215      1.0  0.66710  0.86533  0.29672  1.0000
  C   C216      1.0  0.65659  0.78935  0.29961  1.0000
  C   C217      1.0  0.65393  0.80847  0.21734  1.0000
  C   C218      1.0  0.66394  0.84598  0.21493  1.0000
  C   C219      1.0  0.63937  0.78999  0.13583  1.0000
  H   H173      1.0  0.61465  0.77462  0.15118  1.0000
  H   H174      1.0  0.32665  0.77169  0.10817  1.0000
  H   H175      1.0  0.63078  0.80897  0.08425  1.0000
  C   C220      1.0  0.67312  0.86400  0.12838  1.0000
  H   H176      1.0  0.69754  0.88084  0.13446  1.0000
  H   H177      1.0  0.65026  0.88080  0.10581  1.0000
  H   H178      1.0  0.34671  0.84454  0.07634  1.0000
  H   H179      1.0  0.52377  0.68606  0.01698  1.0000
  H   H180      1.0  0.46015  0.68577  0.01352  1.0000
  H   H181      1.0  0.52850  0.99571  0.33613  1.0000
  H   H182      1.0  0.46184  0.99481  0.33277  1.0000
  C   C221      1.0  0.61512  0.69636  0.66029  1.0000
  C   C222      1.0  0.58807  0.69798  0.59471  1.0000
  C   C223      1.0  0.57002  0.99899  0.56767  1.0000
  C   C224      1.0  0.58307  0.96477  0.59803  1.0000
  C   C225      1.0  0.61163  0.96319  0.66022  1.0000
  C   C226      1.0  0.37712  0.96247  0.65996  1.0000
  C   C227      1.0  0.40487  0.96351  0.59564  1.0000
  C   C228      1.0  0.41652  0.66406  0.56019  1.0000
  C   C229      1.0  0.39697  0.69622  0.58229  1.0000
  C   C230      1.0  0.37049  0.69523  0.64939  1.0000
  H   H183      1.0  0.57787  0.72313  0.57728  1.0000
  H   H184      1.0  0.56944  0.94108  0.58273  1.0000
  H   H185      1.0  0.41959  0.94008  0.58394  1.0000
  H   H186      1.0  0.40636  0.72128  0.56194  1.0000
  C   C231      1.0  0.33259  0.84664  0.37813  1.0000
  C   C232      1.0  0.33012  0.80836  0.37896  1.0000
  H   H187      1.0  0.33215  0.79466  0.43787  1.0000
  H   H188      1.0  0.33533  0.86049  0.43666  1.0000
  C   C233      1.0  0.45466  0.00098  0.54639  1.0000
  C   C234      1.0  0.47362  0.67909  0.62278  1.0000
  C   C235      1.0  0.51147  0.67917  0.62490  1.0000
  C   C236      1.0  0.53200  0.00155  0.55046  1.0000
  C   C237      1.0  0.51379  0.99004  0.47172  1.0000
  C   C238      1.0  0.47445  0.98966  0.46973  1.0000
  C   C239      1.0  0.53550  0.97847  0.39261  1.0000
  H   H189      1.0  0.56504  0.98058  0.40181  1.0000
  H   H190      1.0  0.52940  0.94999  0.37644  1.0000
  C   C240      1.0  0.45432  0.97752  0.38875  1.0000
  H   H191      1.0  0.42461  0.97903  0.39515  1.0000
  H   H192      1.0  0.46133  0.94915  0.37351  1.0000
  C   C241      1.0  0.66537  0.23717  0.29647  1.0000
  C   C242      1.0  0.69774  0.25638  0.27566  1.0000
  C   C243      1.0  0.69630  0.28440  0.21208  1.0000
  C   C244      1.0  0.66275  0.29353  0.17016  1.0000
  C   C245      1.0  0.96324  0.27951  0.20648  1.0000
  C   C246      1.0  0.96447  0.25154  0.26977  1.0000
  Si  Si7       1.0  0.66128  0.99445  0.09916  1.0000
  C   C247      1.0  0.66108  0.02790  0.17251  1.0000
  C   C248      1.0  0.96186  0.03597  0.21990  1.0000
  C   C249      1.0  0.96142  0.06371  0.28414  1.0000
  C   C250      1.0  0.66017  0.08426  0.29889  1.0000
  C   C251      1.0  0.69402  0.07155  0.26523  1.0000
  C   C252      1.0  0.69437  0.04347  0.20201  1.0000
  C   C253      1.0  0.69508  0.99535  0.02624  1.0000
  C   C254      1.0  0.95927  0.32908  0.03079  1.0000
  H   H193      1.0  0.95893  0.05396  0.01601  1.0000
  H   H194      1.0  0.95328  0.27129  0.01530  1.0000
  H   H195      1.0  0.70375  0.27092  0.01991  1.0000
  H   H196      1.0  0.69268  0.05297  0.00246  1.0000
  H   H197      1.0  0.71890  0.03697  0.17308  1.0000
  H   H198      1.0  0.71736  0.08684  0.27248  1.0000
  H   H199      1.0  0.93655  0.07344  0.30514  1.0000
  H   H200      1.0  0.93737  0.02418  0.20319  1.0000
  H   H201      1.0  0.93810  0.28716  0.18281  1.0000
  H   H202      1.0  0.72058  0.29562  0.19164  1.0000
  H   H203      1.0  0.72282  0.24544  0.29077  1.0000
  H   H204      1.0  0.94071  0.23754  0.28256  1.0000
  C   C255      1.0  0.00044  0.19867  0.29672  1.0000
  C   C256      1.0  0.98993  0.12269  0.29961  1.0000
  C   C257      1.0  0.98726  0.14181  0.21734  1.0000
  C   C258      1.0  0.99727  0.17931  0.21493  1.0000
  C   C259      1.0  0.97271  0.12333  0.13583  1.0000
  H   H205      1.0  0.94799  0.10795  0.15118  1.0000
  H   H206      1.0  0.65999  0.10502  0.10817  1.0000
  H   H207      1.0  0.96412  0.14230  0.08425  1.0000
  C   C260      1.0  0.00646  0.19733  0.12838  1.0000
  H   H208      1.0  0.03087  0.21418  0.13446  1.0000
  H   H209      1.0  0.98360  0.21414  0.10581  1.0000
  H   H210      1.0  0.68004  0.17787  0.07634  1.0000
  H   H211      1.0  0.85711  0.01939  0.01698  1.0000
  H   H212      1.0  0.79348  0.01910  0.01352  1.0000
  H   H213      1.0  0.86183  0.32904  0.33612  1.0000
  H   H214      1.0  0.79517  0.32813  0.33277  1.0000
  C   C261      1.0  0.94846  0.02969  0.66030  1.0000
  C   C262      1.0  0.92140  0.03131  0.59471  1.0000
  C   C263      1.0  0.90335  0.33232  0.56766  1.0000
  C   C264      1.0  0.91640  0.29810  0.59803  1.0000
  C   C265      1.0  0.94496  0.29652  0.66023  1.0000
  C   C266      1.0  0.71045  0.29580  0.65996  1.0000
  C   C267      1.0  0.73820  0.29684  0.59564  1.0000
  C   C268      1.0  0.74985  0.99740  0.56018  1.0000
  C   C269      1.0  0.73030  0.02955  0.58229  1.0000
  C   C270      1.0  0.70382  0.02857  0.64938  1.0000
  H   H215      1.0  0.91120  0.05647  0.57729  1.0000
  H   H216      1.0  0.90277  0.27441  0.58273  1.0000
  H   H217      1.0  0.75292  0.27342  0.58395  1.0000
  H   H218      1.0  0.73970  0.05461  0.56194  1.0000
  C   C271      1.0  0.66592  0.17998  0.37813  1.0000
  C   C272      1.0  0.66346  0.14169  0.37896  1.0000
  H   H219      1.0  0.66548  0.12799  0.43787  1.0000
  H   H220      1.0  0.66866  0.19382  0.43666  1.0000
  C   C273      1.0  0.78799  0.33431  0.54639  1.0000
  C   C274      1.0  0.80695  0.01242  0.62278  1.0000
  C   C275      1.0  0.84481  0.01251  0.62491  1.0000
  C   C276      1.0  0.86533  0.33488  0.55046  1.0000
  C   C277      1.0  0.84712  0.32337  0.47172  1.0000
  C   C278      1.0  0.80777  0.32299  0.46974  1.0000
  C   C279      1.0  0.86882  0.31180  0.39261  1.0000
  H   H221      1.0  0.89837  0.31391  0.40181  1.0000
  H   H222      1.0  0.86273  0.28332  0.37645  1.0000
  C   C280      1.0  0.78765  0.31085  0.38876  1.0000
  H   H223      1.0  0.75794  0.31236  0.39516  1.0000
  H   H224      1.0  0.79466  0.28247  0.37352  1.0000
  C   C281      1.0  0.66537  0.57051  0.29647  1.0000
  C   C282      1.0  0.69774  0.58972  0.27566  1.0000
  C   C283      1.0  0.69630  0.61773  0.21209  1.0000
  C   C284      1.0  0.66275  0.62686  0.17016  1.0000
  C   C285      1.0  0.96324  0.61284  0.20648  1.0000
  C   C286      1.0  0.96447  0.58487  0.26977  1.0000
  Si  Si8       1.0  0.66128  0.32779  0.09916  1.0000
  C   C287      1.0  0.66108  0.36123  0.17252  1.0000
  C   C288      1.0  0.96186  0.36930  0.21990  1.0000
  C   C289      1.0  0.96141  0.39704  0.28414  1.0000
  C   C290      1.0  0.66017  0.41759  0.29889  1.0000
  C   C291      1.0  0.69402  0.40488  0.26523  1.0000
  C   C292      1.0  0.69437  0.37680  0.20201  1.0000
  C   C293      1.0  0.69507  0.32868  0.02624  1.0000
  C   C294      1.0  0.95927  0.66242  0.03079  1.0000
  H   H225      1.0  0.95893  0.38729  0.01601  1.0000
  H   H226      1.0  0.95328  0.60463  0.01530  1.0000
  H   H227      1.0  0.70375  0.60425  0.01991  1.0000
  H   H228      1.0  0.69268  0.38631  0.00246  1.0000
  H   H229      1.0  0.71889  0.37030  0.17308  1.0000
  H   H230      1.0  0.71736  0.42018  0.27248  1.0000
  H   H231      1.0  0.93655  0.40678  0.30514  1.0000
  H   H232      1.0  0.93737  0.35752  0.20320  1.0000
  H   H233      1.0  0.93809  0.62049  0.18281  1.0000
  H   H234      1.0  0.72058  0.62896  0.19164  1.0000
  H   H235      1.0  0.72282  0.57877  0.29077  1.0000
  H   H236      1.0  0.94071  0.57087  0.28256  1.0000
  C   C295      1.0  0.00043  0.53200  0.29672  1.0000
  C   C296      1.0  0.98993  0.45602  0.29961  1.0000
  C   C297      1.0  0.98726  0.47514  0.21734  1.0000
  C   C298      1.0  0.99727  0.51264  0.21493  1.0000
  C   C299      1.0  0.97271  0.45666  0.13583  1.0000
  H   H237      1.0  0.94798  0.44129  0.15118  1.0000
  H   H238      1.0  0.65999  0.43835  0.10817  1.0000
  H   H239      1.0  0.96412  0.47563  0.08425  1.0000
  C   C300      1.0  0.00646  0.53067  0.12838  1.0000
  H   H240      1.0  0.03087  0.54751  0.13446  1.0000
  H   H241      1.0  0.98360  0.54747  0.10581  1.0000
  H   H242      1.0  0.68004  0.51120  0.07634  1.0000
  H   H243      1.0  0.85711  0.35273  0.01698  1.0000
  H   H244      1.0  0.79348  0.35244  0.01352  1.0000
  H   H245      1.0  0.86183  0.66237  0.33612  1.0000
  H   H246      1.0  0.79517  0.66147  0.33278  1.0000
  C   C301      1.0  0.94845  0.36302  0.66029  1.0000
  C   C302      1.0  0.92140  0.36464  0.59471  1.0000
  C   C303      1.0  0.90335  0.66565  0.56766  1.0000
  C   C304      1.0  0.91640  0.63143  0.59803  1.0000
  C   C305      1.0  0.94496  0.62986  0.66023  1.0000
  C   C306      1.0  0.71045  0.62913  0.65996  1.0000
  C   C307      1.0  0.73820  0.63017  0.59564  1.0000
  C   C308      1.0  0.74985  0.33073  0.56019  1.0000
  C   C309      1.0  0.73030  0.36289  0.58229  1.0000
  C   C310      1.0  0.70382  0.36190  0.64939  1.0000
  H   H247      1.0  0.91120  0.38980  0.57728  1.0000
  H   H248      1.0  0.90277  0.60774  0.58273  1.0000
  H   H249      1.0  0.75292  0.60675  0.58395  1.0000
  H   H250      1.0  0.73970  0.38795  0.56194  1.0000
  C   C311      1.0  0.66592  0.51331  0.37813  1.0000
  C   C312      1.0  0.66346  0.47503  0.37896  1.0000
  H   H251      1.0  0.66548  0.46132  0.43787  1.0000
  H   H252      1.0  0.66866  0.52716  0.43666  1.0000
  C   C313      1.0  0.78799  0.66765  0.54639  1.0000
  C   C314      1.0  0.80695  0.34575  0.62278  1.0000
  C   C315      1.0  0.84481  0.34584  0.62490  1.0000
  C   C316      1.0  0.86533  0.66821  0.55046  1.0000
  C   C317      1.0  0.84712  0.65670  0.47172  1.0000
  C   C318      1.0  0.80778  0.65632  0.46974  1.0000
  C   C319      1.0  0.86882  0.64513  0.39261  1.0000
  H   H253      1.0  0.89837  0.64724  0.40181  1.0000
  H   H254      1.0  0.86273  0.61665  0.37645  1.0000
  C   C320      1.0  0.78765  0.64418  0.38876  1.0000
  H   H255      1.0  0.75794  0.64569  0.39516  1.0000
  H   H256      1.0  0.79466  0.61581  0.37352  1.0000
  C   C321      1.0  0.66538  0.90384  0.29647  1.0000
  C   C322      1.0  0.69774  0.92305  0.27566  1.0000
  C   C323      1.0  0.69630  0.95107  0.21208  1.0000
  C   C324      1.0  0.66275  0.96019  0.17016  1.0000
  C   C325      1.0  0.96325  0.94618  0.20648  1.0000
  C   C326      1.0  0.96448  0.91820  0.26976  1.0000
  Si  Si9       1.0  0.66128  0.66112  0.09916  1.0000
  C   C327      1.0  0.66108  0.69457  0.17252  1.0000
  C   C328      1.0  0.96186  0.70264  0.21990  1.0000
  C   C329      1.0  0.96142  0.73038  0.28414  1.0000
  C   C330      1.0  0.66017  0.75092  0.29889  1.0000
  C   C331      1.0  0.69402  0.73821  0.26523  1.0000
  C   C332      1.0  0.69437  0.71013  0.20201  1.0000
  C   C333      1.0  0.69507  0.66201  0.02624  1.0000
  C   C334      1.0  0.95927  0.99575  0.03079  1.0000
  H   H257      1.0  0.95893  0.72062  0.01601  1.0000
  H   H258      1.0  0.95329  0.93796  0.01530  1.0000
  H   H259      1.0  0.70375  0.93759  0.01991  1.0000
  H   H260      1.0  0.69268  0.71964  0.00246  1.0000
  H   H261      1.0  0.71889  0.70363  0.17308  1.0000
  H   H262      1.0  0.71736  0.75351  0.27248  1.0000
  H   H263      1.0  0.93655  0.74011  0.30514  1.0000
  H   H264      1.0  0.93737  0.69085  0.20320  1.0000
  H   H265      1.0  0.93810  0.95383  0.18281  1.0000
  H   H266      1.0  0.72058  0.96229  0.19164  1.0000
  H   H267      1.0  0.72282  0.91210  0.29077  1.0000
  H   H268      1.0  0.94071  0.90421  0.28256  1.0000
  C   C335      1.0  0.00044  0.86533  0.29672  1.0000
  C   C336      1.0  0.98992  0.78935  0.29961  1.0000
  C   C337      1.0  0.98726  0.80847  0.21734  1.0000
  C   C338      1.0  0.99727  0.84598  0.21493  1.0000
  C   C339      1.0  0.97270  0.78999  0.13583  1.0000
  H   H269      1.0  0.94799  0.77462  0.15118  1.0000
  H   H270      1.0  0.65999  0.77169  0.10817  1.0000
  H   H271      1.0  0.96412  0.80897  0.08425  1.0000
  C   C340      1.0  0.00646  0.86400  0.12838  1.0000
  H   H272      1.0  0.03087  0.88084  0.13446  1.0000
  H   H273      1.0  0.98360  0.88080  0.10581  1.0000
  H   H274      1.0  0.68004  0.84454  0.07634  1.0000
  H   H275      1.0  0.85710  0.68606  0.01698  1.0000
  H   H276      1.0  0.79348  0.68577  0.01352  1.0000
  H   H277      1.0  0.86183  0.99571  0.33613  1.0000
  H   H278      1.0  0.79517  0.99481  0.33277  1.0000
  C   C341      1.0  0.94845  0.69636  0.66029  1.0000
  C   C342      1.0  0.92140  0.69798  0.59471  1.0000
  C   C343      1.0  0.90335  0.99899  0.56767  1.0000
  C   C344      1.0  0.91640  0.96477  0.59803  1.0000
  C   C345      1.0  0.94496  0.96319  0.66022  1.0000
  C   C346      1.0  0.71046  0.96247  0.65996  1.0000
  C   C347      1.0  0.73820  0.96351  0.59564  1.0000
  C   C348      1.0  0.74985  0.66406  0.56019  1.0000
  C   C349      1.0  0.73030  0.69622  0.58229  1.0000
  C   C350      1.0  0.70382  0.69523  0.64939  1.0000
  H   H279      1.0  0.91120  0.72313  0.57728  1.0000
  H   H280      1.0  0.90277  0.94108  0.58273  1.0000
  H   H281      1.0  0.75293  0.94008  0.58394  1.0000
  H   H282      1.0  0.73970  0.72128  0.56194  1.0000
  C   C351      1.0  0.66592  0.84664  0.37813  1.0000
  C   C352      1.0  0.66346  0.80836  0.37896  1.0000
  H   H283      1.0  0.66548  0.79466  0.43787  1.0000
  H   H284      1.0  0.66866  0.86049  0.43666  1.0000
  C   C353      1.0  0.78800  0.00098  0.54639  1.0000
  C   C354      1.0  0.80695  0.67909  0.62278  1.0000
  C   C355      1.0  0.84481  0.67917  0.62490  1.0000
  C   C356      1.0  0.86534  0.00155  0.55046  1.0000
  C   C357      1.0  0.84712  0.99004  0.47172  1.0000
  C   C358      1.0  0.80778  0.98966  0.46973  1.0000
  C   C359      1.0  0.86883  0.97847  0.39261  1.0000
  H   H285      1.0  0.89837  0.98058  0.40181  1.0000
  H   H286      1.0  0.86274  0.94999  0.37644  1.0000
  C   C360      1.0  0.78766  0.97752  0.38875  1.0000
  H   H287      1.0  0.75794  0.97903  0.39515  1.0000
  H   H288      1.0  0.79466  0.94915  0.37351  1.0000
