data_image0
_chemical_formula_structural       C4OC4OH4N2CNC2OH3CHCNC2OH3CHC2HC2HN3C2HCHNC2HCHC4OC4OH4N2CNC2OH3CHCNC2OH3CHC2HC2HN3C2HCHNC2HCHC4OC4OH4N2CNC2OH3CHCNC2OH3CHC2HC2HN3C2HCHNC2HCHC4OC4OH4N2CNC2OH3CHCNC2OH3CHC2HC2HN3C2HCHNC2HCH
_chemical_formula_sum              "C104 O16 H72 N32"
_cell_length_a       31.2568
_cell_length_b       31.2568
_cell_length_c       14.8469
_cell_angle_alpha    90
_cell_angle_beta     90
_cell_angle_gamma    90

_space_group_name_H-M_alt    "P 1"
_space_group_IT_number       1

loop_
  _space_group_symop_operation_xyz
  'x, y, z'

loop_
  _atom_site_type_symbol
  _atom_site_label
  _atom_site_symmetry_multiplicity
  _atom_site_fract_x
  _atom_site_fract_y
  _atom_site_fract_z
  _atom_site_occupancy
  C   C1        1.0  0.01286  0.49452  0.31398  1.0000
  C   C2        1.0  0.07827  0.42917  0.31192  1.0000
  C   C3        1.0  0.09008  0.47262  0.31392  1.0000
  C   C4        1.0  0.05760  0.50414  0.31545  1.0000
  O   O1        1.0  0.10917  0.39829  0.30935  1.0000
  C   C5        1.0  0.48010  0.02730  0.31435  1.0000
  C   C6        1.0  0.43539  0.01773  0.31697  1.0000
  C   C7        1.0  0.40288  0.04926  0.31751  1.0000
  C   C8        1.0  0.41472  0.09273  0.31587  1.0000
  O   O2        1.0  0.38386  0.12363  0.31804  1.0000
  H   H1        1.0  0.11568  0.39114  0.37235  1.0000
  H   H2        1.0  0.37668  0.12993  0.25495  1.0000
  H   H3        1.0  0.06797  0.03481  0.31844  1.0000
  H   H4        1.0  0.42514  0.48704  0.31964  1.0000
  N   N1        1.0  0.36025  0.04075  0.31821  1.0000
  N   N2        1.0  0.13268  0.48108  0.31485  1.0000
  C   C9        1.0  0.50147  0.21590  0.30689  1.0000
  N   N3        1.0  0.53219  0.28575  0.30216  1.0000
  C   C10       1.0  0.53818  0.24260  0.30011  1.0000
  C   C11       1.0  0.58271  0.22675  0.29023  1.0000
  O   O3        1.0  0.59634  0.20225  0.36653  1.0000
  H   H5        1.0  0.10508  0.25323  0.27989  1.0000
  H   H6        1.0  0.58453  0.20642  0.23060  1.0000
  H   H7        1.0  0.09788  0.22148  0.41892  1.0000
  C   C12       1.0  0.50284  0.17082  0.30638  1.0000
  H   H8        1.0  0.53154  0.15551  0.30146  1.0000
  C   C13       1.0  0.29149  0.50596  0.31729  1.0000
  N   N4        1.0  0.22167  0.47513  0.31404  1.0000
  C   C14       1.0  0.26483  0.46912  0.31373  1.0000
  C   C15       1.0  0.28073  0.42445  0.30787  1.0000
  O   O4        1.0  0.30474  0.41707  0.22717  1.0000
  H   H9        1.0  0.25432  0.90153  0.31104  1.0000
  H   H10       1.0  0.30143  0.41808  0.36550  1.0000
  H   H11       1.0  0.28518  0.91963  0.17546  1.0000
  C   C16       1.0  0.33657  0.50455  0.31763  1.0000
  H   H12       1.0  0.35187  0.47576  0.31593  1.0000
  C   C17       1.0  0.00325  0.44978  0.31213  1.0000
  C   C18       1.0  0.03480  0.41733  0.31104  1.0000
  H   H13       1.0  0.47257  0.43940  0.31000  1.0000
  C   C19       1.0  0.45818  0.10454  0.31315  1.0000
  C   C20       1.0  0.48967  0.07201  0.31178  1.0000
  H   H14       1.0  0.02036  0.08225  0.30834  1.0000
  N   N5        1.0  0.46671  0.14715  0.31134  1.0000
  N   N6        1.0  0.02638  0.37472  0.30986  1.0000
  N   N7        1.0  0.96278  0.23571  0.31429  1.0000
  C   C21       1.0  0.95735  0.27879  0.31575  1.0000
  C   C22       1.0  0.99359  0.30548  0.30985  1.0000
  H   H15       1.0  0.92721  0.29110  0.32172  1.0000
  C   C23       1.0  0.99066  0.35037  0.31162  1.0000
  H   H16       1.0  0.96133  0.36462  0.31648  1.0000
  N   N8        1.0  0.27165  0.04475  0.32058  1.0000
  C   C24       1.0  0.22857  0.05019  0.32082  1.0000
  C   C25       1.0  0.20191  0.01385  0.31755  1.0000
  H   H17       1.0  0.21624  0.08043  0.32345  1.0000
  C   C26       1.0  0.15702  0.01679  0.31747  1.0000
  H   H18       1.0  0.14273  0.04617  0.31973  1.0000
  C   C27       1.0  0.01286  0.99452  0.31398  1.0000
  C   C28       1.0  0.07827  0.92916  0.31192  1.0000
  C   C29       1.0  0.09008  0.97262  0.31392  1.0000
  C   C30       1.0  0.05760  0.00414  0.31545  1.0000
  O   O5        1.0  0.10917  0.89829  0.30935  1.0000
  C   C31       1.0  0.48010  0.52730  0.31435  1.0000
  C   C32       1.0  0.43539  0.51773  0.31697  1.0000
  C   C33       1.0  0.40288  0.54926  0.31751  1.0000
  C   C34       1.0  0.41472  0.59273  0.31587  1.0000
  O   O6        1.0  0.38386  0.62363  0.31804  1.0000
  H   H19       1.0  0.11568  0.89114  0.37235  1.0000
  H   H20       1.0  0.37668  0.62993  0.25495  1.0000
  H   H21       1.0  0.06797  0.53481  0.31844  1.0000
  H   H22       1.0  0.42514  0.98704  0.31964  1.0000
  N   N9        1.0  0.36025  0.54075  0.31821  1.0000
  N   N10       1.0  0.13268  0.98108  0.31485  1.0000
  C   C35       1.0  0.50147  0.71590  0.30689  1.0000
  N   N11       1.0  0.53219  0.78575  0.30216  1.0000
  C   C36       1.0  0.53818  0.74260  0.30011  1.0000
  C   C37       1.0  0.58271  0.72675  0.29023  1.0000
  O   O7        1.0  0.59634  0.70225  0.36653  1.0000
  H   H23       1.0  0.10508  0.75323  0.27989  1.0000
  H   H24       1.0  0.58453  0.70642  0.23060  1.0000
  H   H25       1.0  0.09788  0.72148  0.41892  1.0000
  C   C38       1.0  0.50284  0.67082  0.30638  1.0000
  H   H26       1.0  0.53154  0.65551  0.30146  1.0000
  C   C39       1.0  0.29149  0.00596  0.31729  1.0000
  N   N12       1.0  0.22167  0.97513  0.31404  1.0000
  C   C40       1.0  0.26483  0.96912  0.31373  1.0000
  C   C41       1.0  0.28073  0.92445  0.30787  1.0000
  O   O8        1.0  0.30474  0.91707  0.22717  1.0000
  H   H27       1.0  0.25432  0.40153  0.31104  1.0000
  H   H28       1.0  0.30143  0.91808  0.36550  1.0000
  H   H29       1.0  0.28518  0.41963  0.17546  1.0000
  C   C42       1.0  0.33657  0.00455  0.31763  1.0000
  H   H30       1.0  0.35187  0.97576  0.31593  1.0000
  C   C43       1.0  0.00325  0.94978  0.31213  1.0000
  C   C44       1.0  0.03480  0.91733  0.31104  1.0000
  H   H31       1.0  0.47257  0.93941  0.31000  1.0000
  C   C45       1.0  0.45818  0.60454  0.31315  1.0000
  C   C46       1.0  0.48967  0.57201  0.31178  1.0000
  H   H32       1.0  0.02036  0.58225  0.30834  1.0000
  N   N13       1.0  0.46671  0.64715  0.31134  1.0000
  N   N14       1.0  0.02638  0.87472  0.30986  1.0000
  N   N15       1.0  0.96278  0.73572  0.31429  1.0000
  C   C47       1.0  0.95735  0.77879  0.31575  1.0000
  C   C48       1.0  0.99359  0.80548  0.30985  1.0000
  H   H33       1.0  0.92721  0.79110  0.32172  1.0000
  C   C49       1.0  0.99066  0.85037  0.31162  1.0000
  H   H34       1.0  0.96133  0.86462  0.31648  1.0000
  N   N16       1.0  0.27165  0.54475  0.32058  1.0000
  C   C50       1.0  0.22857  0.55019  0.32082  1.0000
  C   C51       1.0  0.20191  0.51385  0.31755  1.0000
  H   H35       1.0  0.21624  0.58043  0.32345  1.0000
  C   C52       1.0  0.15702  0.51679  0.31747  1.0000
  H   H36       1.0  0.14273  0.54617  0.31973  1.0000
  C   C53       1.0  0.51287  0.49452  0.31398  1.0000
  C   C54       1.0  0.57827  0.42917  0.31192  1.0000
  C   C55       1.0  0.59008  0.47262  0.31392  1.0000
  C   C56       1.0  0.55760  0.50414  0.31545  1.0000
  O   O9        1.0  0.60917  0.39829  0.30935  1.0000
  C   C57       1.0  0.98010  0.02730  0.31435  1.0000
  C   C58       1.0  0.93539  0.01773  0.31697  1.0000
  C   C59       1.0  0.90288  0.04926  0.31751  1.0000
  C   C60       1.0  0.91472  0.09273  0.31587  1.0000
  O   O10       1.0  0.88385  0.12363  0.31804  1.0000
  H   H37       1.0  0.61568  0.39114  0.37235  1.0000
  H   H38       1.0  0.87667  0.12993  0.25495  1.0000
  H   H39       1.0  0.56797  0.03481  0.31844  1.0000
  H   H40       1.0  0.92514  0.48704  0.31964  1.0000
  N   N17       1.0  0.86025  0.04075  0.31821  1.0000
  N   N18       1.0  0.63268  0.48108  0.31485  1.0000
  C   C61       1.0  0.00147  0.21590  0.30689  1.0000
  N   N19       1.0  0.03220  0.28575  0.30216  1.0000
  C   C62       1.0  0.03818  0.24260  0.30011  1.0000
  C   C63       1.0  0.08272  0.22675  0.29023  1.0000
  O   O11       1.0  0.09634  0.20225  0.36653  1.0000
  H   H41       1.0  0.60508  0.25323  0.27989  1.0000
  H   H42       1.0  0.08453  0.20642  0.23060  1.0000
  H   H43       1.0  0.59788  0.22148  0.41892  1.0000
  C   C64       1.0  0.00284  0.17082  0.30638  1.0000
  H   H44       1.0  0.03154  0.15551  0.30146  1.0000
  C   C65       1.0  0.79149  0.50596  0.31729  1.0000
  N   N20       1.0  0.72167  0.47513  0.31404  1.0000
  C   C66       1.0  0.76483  0.46912  0.31373  1.0000
  C   C67       1.0  0.78073  0.42445  0.30787  1.0000
  O   O12       1.0  0.80474  0.41707  0.22717  1.0000
  H   H45       1.0  0.75432  0.90153  0.31104  1.0000
  H   H46       1.0  0.80143  0.41808  0.36550  1.0000
  H   H47       1.0  0.78518  0.91963  0.17546  1.0000
  C   C68       1.0  0.83657  0.50455  0.31763  1.0000
  H   H48       1.0  0.85187  0.47576  0.31593  1.0000
  C   C69       1.0  0.50325  0.44978  0.31213  1.0000
  C   C70       1.0  0.53481  0.41733  0.31104  1.0000
  H   H49       1.0  0.97257  0.43940  0.31000  1.0000
  C   C71       1.0  0.95818  0.10454  0.31315  1.0000
  C   C72       1.0  0.98967  0.07201  0.31178  1.0000
  H   H50       1.0  0.52035  0.08225  0.30834  1.0000
  N   N21       1.0  0.96671  0.14715  0.31134  1.0000
  N   N22       1.0  0.52637  0.37472  0.30986  1.0000
  N   N23       1.0  0.46279  0.23571  0.31429  1.0000
  C   C73       1.0  0.45735  0.27879  0.31575  1.0000
  C   C74       1.0  0.49359  0.30548  0.30985  1.0000
  H   H51       1.0  0.42721  0.29110  0.32172  1.0000
  C   C75       1.0  0.49066  0.35037  0.31162  1.0000
  H   H52       1.0  0.46133  0.36462  0.31648  1.0000
  N   N24       1.0  0.77165  0.04475  0.32058  1.0000
  C   C76       1.0  0.72857  0.05019  0.32082  1.0000
  C   C77       1.0  0.70191  0.01385  0.31755  1.0000
  H   H53       1.0  0.71623  0.08043  0.32345  1.0000
  C   C78       1.0  0.65702  0.01679  0.31747  1.0000
  H   H54       1.0  0.64272  0.04617  0.31973  1.0000
  C   C79       1.0  0.51287  0.99452  0.31398  1.0000
  C   C80       1.0  0.57827  0.92916  0.31192  1.0000
  C   C81       1.0  0.59008  0.97262  0.31392  1.0000
  C   C82       1.0  0.55760  0.00414  0.31545  1.0000
  O   O13       1.0  0.60917  0.89829  0.30935  1.0000
  C   C83       1.0  0.98010  0.52730  0.31435  1.0000
  C   C84       1.0  0.93539  0.51773  0.31697  1.0000
  C   C85       1.0  0.90288  0.54926  0.31751  1.0000
  C   C86       1.0  0.91472  0.59273  0.31587  1.0000
  O   O14       1.0  0.88385  0.62363  0.31804  1.0000
  H   H55       1.0  0.61568  0.89114  0.37235  1.0000
  H   H56       1.0  0.87667  0.62993  0.25495  1.0000
  H   H57       1.0  0.56797  0.53481  0.31844  1.0000
  H   H58       1.0  0.92514  0.98704  0.31964  1.0000
  N   N25       1.0  0.86025  0.54075  0.31821  1.0000
  N   N26       1.0  0.63268  0.98108  0.31485  1.0000
  C   C87       1.0  0.00147  0.71590  0.30689  1.0000
  N   N27       1.0  0.03220  0.78575  0.30216  1.0000
  C   C88       1.0  0.03818  0.74260  0.30011  1.0000
  C   C89       1.0  0.08272  0.72675  0.29023  1.0000
  O   O15       1.0  0.09634  0.70225  0.36653  1.0000
  H   H59       1.0  0.60508  0.75323  0.27989  1.0000
  H   H60       1.0  0.08453  0.70642  0.23060  1.0000
  H   H61       1.0  0.59788  0.72148  0.41892  1.0000
  C   C90       1.0  0.00284  0.67082  0.30638  1.0000
  H   H62       1.0  0.03154  0.65551  0.30146  1.0000
  C   C91       1.0  0.79149  0.00596  0.31729  1.0000
  N   N28       1.0  0.72167  0.97513  0.31404  1.0000
  C   C92       1.0  0.76483  0.96912  0.31373  1.0000
  C   C93       1.0  0.78073  0.92445  0.30787  1.0000
  O   O16       1.0  0.80474  0.91707  0.22717  1.0000
  H   H63       1.0  0.75432  0.40153  0.31104  1.0000
  H   H64       1.0  0.80143  0.91808  0.36550  1.0000
  H   H65       1.0  0.78518  0.41963  0.17546  1.0000
  C   C94       1.0  0.83657  0.00455  0.31763  1.0000
  H   H66       1.0  0.85187  0.97576  0.31593  1.0000
  C   C95       1.0  0.50325  0.94978  0.31213  1.0000
  C   C96       1.0  0.53481  0.91733  0.31104  1.0000
  H   H67       1.0  0.97257  0.93941  0.31000  1.0000
  C   C97       1.0  0.95818  0.60454  0.31315  1.0000
  C   C98       1.0  0.98967  0.57201  0.31178  1.0000
  H   H68       1.0  0.52035  0.58225  0.30834  1.0000
  N   N29       1.0  0.96671  0.64715  0.31134  1.0000
  N   N30       1.0  0.52637  0.87472  0.30986  1.0000
  N   N31       1.0  0.46279  0.73572  0.31429  1.0000
  C   C99       1.0  0.45735  0.77879  0.31575  1.0000
  C   C100      1.0  0.49359  0.80548  0.30985  1.0000
  H   H69       1.0  0.42721  0.79110  0.32172  1.0000
  C   C101      1.0  0.49066  0.85037  0.31162  1.0000
  H   H70       1.0  0.46133  0.86462  0.31648  1.0000
  N   N32       1.0  0.77165  0.54475  0.32058  1.0000
  C   C102      1.0  0.72857  0.55019  0.32082  1.0000
  C   C103      1.0  0.70191  0.51385  0.31755  1.0000
  H   H71       1.0  0.71623  0.58043  0.32345  1.0000
  C   C104      1.0  0.65702  0.51679  0.31747  1.0000
  H   H72       1.0  0.64272  0.54617  0.31973  1.0000
