data_image0
_chemical_formula_structural       C7NH2NH2NHC3NH2NH2NHC3NH2NH2NHC5H3C2O3C5H3C2O3C3NH2NH2NHC3NH2NH2NHC3NH2NH2NHC7NH2NH2NHC3NH2NH2NHC3NH2NH2NHC5H3C2O3C5H3C2O3C3NH2NH2NHC3NH2NH2NHC3NH2NH2NHC7NH2NH2NHC3NH2NH2NHC3NH2NH2NHC5H3C2O3C5H3C2O3C3NH2NH2NHC3NH2NH2NHC3NH2NH2NHC7NH2NH2NHC3NH2NH2NHC3NH2NH2NHC5H3C2O3C5H3C2O3C3NH2NH2NHC3NH2NH2NHC3NH2NH2NH
_chemical_formula_sum              "C144 N72 H144 O24"
_cell_length_a       44.4978
_cell_length_b       44.4978
_cell_length_c       15.1184
_cell_angle_alpha    90
_cell_angle_beta     90
_cell_angle_gamma    120

_space_group_name_H-M_alt    "P 1"
_space_group_IT_number       1

loop_
  _space_group_symop_operation_xyz
  'x, y, z'

loop_
  _atom_site_type_symbol
  _atom_site_label
  _atom_site_symmetry_multiplicity
  _atom_site_fract_x
  _atom_site_fract_y
  _atom_site_fract_z
  _atom_site_occupancy
  C   C1        1.0  0.18413  0.31608  0.30242  1.0000
  C   C2        1.0  0.20747  0.30330  0.30850  1.0000
  C   C3        1.0  0.30420  0.17608  0.34744  1.0000
  C   C4        1.0  0.28083  0.18881  0.34093  1.0000
  C   C5        1.0  0.22019  0.25724  0.30954  1.0000
  C   C6        1.0  0.23138  0.24493  0.23669  1.0000
  C   C7        1.0  0.25674  0.23490  0.25215  1.0000
  N   N1        1.0  0.27321  0.22899  0.18321  1.0000
  H   H1        1.0  0.26987  0.23301  0.12212  1.0000
  H   H2        1.0  0.29312  0.22597  0.19244  1.0000
  N   N2        1.0  0.21925  0.24463  0.15310  1.0000
  H   H3        1.0  0.20435  0.25406  0.13944  1.0000
  H   H4        1.0  0.22275  0.23272  0.10418  1.0000
  N   N3        1.0  0.19797  0.26938  0.29526  1.0000
  H   H5        1.0  0.17766  0.25532  0.25896  1.0000
  C   C8        1.0  0.23289  0.46098  0.30993  1.0000
  C   C9        1.0  0.24488  0.48443  0.23692  1.0000
  C   C10       1.0  0.25550  0.01998  0.25272  1.0000
  N   N4        1.0  0.26243  0.04279  0.18416  1.0000
  H   H6        1.0  0.25963  0.03598  0.12276  1.0000
  H   H7        1.0  0.26554  0.06573  0.19358  1.0000
  N   N5        1.0  0.24417  0.47224  0.15315  1.0000
  H   H8        1.0  0.23404  0.44778  0.13983  1.0000
  H   H9        1.0  0.25502  0.48726  0.10299  1.0000
  N   N6        1.0  0.22081  0.42660  0.29600  1.0000
  H   H10       1.0  0.23466  0.42035  0.25881  1.0000
  C   C11       1.0  0.02934  0.27004  0.31060  1.0000
  C   C12       1.0  0.00594  0.25873  0.23753  1.0000
  C   C13       1.0  0.47053  0.23341  0.25281  1.0000
  N   N7        1.0  0.44820  0.21687  0.18379  1.0000
  H   H11       1.0  0.45571  0.22006  0.12284  1.0000
  H   H12       1.0  0.42530  0.19697  0.19312  1.0000
  N   N8        1.0  0.01789  0.27072  0.15392  1.0000
  H   H13       1.0  0.04226  0.28553  0.14040  1.0000
  H   H14       1.0  0.00256  0.26712  0.10473  1.0000
  N   N9        1.0  0.06369  0.29243  0.29661  1.0000
  H   H15       1.0  0.06996  0.31263  0.25984  1.0000
  C   C14       1.0  0.17418  0.36606  0.30359  1.0000
  C   C15       1.0  0.13810  0.34249  0.30370  1.0000
  C   C16       1.0  0.12419  0.30614  0.30278  1.0000
  C   C17       1.0  0.14777  0.29365  0.30239  1.0000
  C   C18       1.0  0.19663  0.35216  0.30294  1.0000
  H   H16       1.0  0.13806  0.26750  0.30625  1.0000
  H   H17       1.0  0.22276  0.36860  0.30743  1.0000
  H   H18       1.0  0.12168  0.35219  0.30842  1.0000
  C   C19       1.0  0.18697  0.40216  0.31036  1.0000
  C   C20       1.0  0.08806  0.28279  0.30886  1.0000
  O   O1        1.0  0.24119  0.32589  0.32907  1.0000
  O   O2        1.0  0.16442  0.41323  0.33193  1.0000
  O   O3        1.0  0.07694  0.24902  0.32886  1.0000
  C   C21       1.0  0.31422  0.12614  0.34842  1.0000
  C   C22       1.0  0.35028  0.14975  0.34823  1.0000
  C   C23       1.0  0.36415  0.18610  0.34768  1.0000
  C   C24       1.0  0.34053  0.19855  0.34721  1.0000
  C   C25       1.0  0.29174  0.14001  0.34776  1.0000
  H   H19       1.0  0.35020  0.22468  0.34254  1.0000
  H   H20       1.0  0.26561  0.12356  0.34351  1.0000
  H   H21       1.0  0.36675  0.14008  0.34420  1.0000
  C   C26       1.0  0.30148  0.09001  0.34278  1.0000
  C   C27       1.0  0.40025  0.20945  0.34118  1.0000
  O   O4        1.0  0.24715  0.16619  0.32007  1.0000
  O   O5        1.0  0.32410  0.07887  0.32276  1.0000
  O   O6        1.0  0.41132  0.24310  0.31990  1.0000
  C   C28       1.0  0.26795  0.23474  0.34065  1.0000
  C   C29       1.0  0.25660  0.24684  0.41364  1.0000
  C   C30       1.0  0.23150  0.25723  0.39806  1.0000
  N   N10       1.0  0.26837  0.24655  0.49731  1.0000
  H   H22       1.0  0.28294  0.23671  0.51075  1.0000
  H   H23       1.0  0.26454  0.25791  0.54696  1.0000
  N   N11       1.0  0.21534  0.26366  0.46684  1.0000
  H   H24       1.0  0.19550  0.26677  0.45748  1.0000
  H   H25       1.0  0.21895  0.26019  0.52811  1.0000
  N   N12       1.0  0.29026  0.22269  0.35464  1.0000
  H   H26       1.0  0.31047  0.23667  0.39137  1.0000
  C   C31       1.0  0.25530  0.03120  0.34125  1.0000
  C   C32       1.0  0.24275  0.00761  0.41388  1.0000
  C   C33       1.0  0.23308  0.47233  0.39842  1.0000
  N   N13       1.0  0.24181  0.01915  0.49738  1.0000
  H   H27       1.0  0.25076  0.04341  0.51125  1.0000
  H   H28       1.0  0.22945  0.00351  0.54558  1.0000
  N   N14       1.0  0.22759  0.45009  0.46742  1.0000
  H   H29       1.0  0.22480  0.42725  0.45822  1.0000
  H   H30       1.0  0.23201  0.45767  0.52834  1.0000
  N   N15       1.0  0.26757  0.06556  0.35596  1.0000
  H   H31       1.0  0.25346  0.07191  0.39174  1.0000
  C   C34       1.0  0.45907  0.22237  0.34134  1.0000
  C   C35       1.0  0.48240  0.23390  0.41461  1.0000
  C   C36       1.0  0.01797  0.25878  0.39912  1.0000
  N   N16       1.0  0.47004  0.22252  0.49834  1.0000
  H   H32       1.0  0.44556  0.20822  0.51140  1.0000
  H   H33       1.0  0.48497  0.22678  0.54878  1.0000
  N   N17       1.0  0.04067  0.27471  0.46786  1.0000
  H   H34       1.0  0.06376  0.29431  0.45873  1.0000
  H   H35       1.0  0.03382  0.27069  0.52927  1.0000
  N   N18       1.0  0.42470  0.20004  0.35512  1.0000
  H   H36       1.0  0.41848  0.17990  0.39215  1.0000
  C   C37       1.0  0.18413  0.81608  0.30242  1.0000
  C   C38       1.0  0.20747  0.80330  0.30850  1.0000
  C   C39       1.0  0.30420  0.67607  0.34744  1.0000
  C   C40       1.0  0.28083  0.68881  0.34093  1.0000
  C   C41       1.0  0.22019  0.75724  0.30954  1.0000
  C   C42       1.0  0.23138  0.74493  0.23669  1.0000
  C   C43       1.0  0.25674  0.73490  0.25215  1.0000
  N   N19       1.0  0.27322  0.72899  0.18321  1.0000
  H   H37       1.0  0.26988  0.73301  0.12212  1.0000
  H   H38       1.0  0.29312  0.72597  0.19244  1.0000
  N   N20       1.0  0.21925  0.74463  0.15310  1.0000
  H   H39       1.0  0.20435  0.75406  0.13944  1.0000
  H   H40       1.0  0.22275  0.73272  0.10418  1.0000
  N   N21       1.0  0.19797  0.76939  0.29526  1.0000
  H   H41       1.0  0.17766  0.75532  0.25896  1.0000
  C   C44       1.0  0.23289  0.96098  0.30993  1.0000
  C   C45       1.0  0.24488  0.98443  0.23692  1.0000
  C   C46       1.0  0.25550  0.51997  0.25272  1.0000
  N   N22       1.0  0.26243  0.54279  0.18416  1.0000
  H   H42       1.0  0.25963  0.53598  0.12276  1.0000
  H   H43       1.0  0.26554  0.56573  0.19358  1.0000
  N   N23       1.0  0.24417  0.97223  0.15315  1.0000
  H   H44       1.0  0.23404  0.94778  0.13983  1.0000
  H   H45       1.0  0.25502  0.98727  0.10299  1.0000
  N   N24       1.0  0.22081  0.92660  0.29600  1.0000
  H   H46       1.0  0.23466  0.92035  0.25881  1.0000
  C   C47       1.0  0.02935  0.77004  0.31060  1.0000
  C   C48       1.0  0.00594  0.75873  0.23753  1.0000
  C   C49       1.0  0.47053  0.73340  0.25281  1.0000
  N   N25       1.0  0.44820  0.71687  0.18379  1.0000
  H   H47       1.0  0.45571  0.72005  0.12284  1.0000
  H   H48       1.0  0.42530  0.69696  0.19312  1.0000
  N   N26       1.0  0.01789  0.77072  0.15392  1.0000
  H   H49       1.0  0.04226  0.78553  0.14040  1.0000
  H   H50       1.0  0.00256  0.76712  0.10473  1.0000
  N   N27       1.0  0.06369  0.79243  0.29661  1.0000
  H   H51       1.0  0.06996  0.81263  0.25984  1.0000
  C   C50       1.0  0.17418  0.86606  0.30359  1.0000
  C   C51       1.0  0.13811  0.84248  0.30370  1.0000
  C   C52       1.0  0.12419  0.80614  0.30278  1.0000
  C   C53       1.0  0.14777  0.79365  0.30239  1.0000
  C   C54       1.0  0.19663  0.85216  0.30294  1.0000
  H   H52       1.0  0.13806  0.76750  0.30625  1.0000
  H   H53       1.0  0.22276  0.86860  0.30743  1.0000
  H   H54       1.0  0.12168  0.85219  0.30842  1.0000
  C   C55       1.0  0.18697  0.90216  0.31036  1.0000
  C   C56       1.0  0.08806  0.78279  0.30886  1.0000
  O   O7        1.0  0.24119  0.82589  0.32907  1.0000
  O   O8        1.0  0.16442  0.91323  0.33193  1.0000
  O   O9        1.0  0.07693  0.74902  0.32886  1.0000
  C   C57       1.0  0.31421  0.62614  0.34842  1.0000
  C   C58       1.0  0.35028  0.64975  0.34823  1.0000
  C   C59       1.0  0.36414  0.68609  0.34768  1.0000
  C   C60       1.0  0.34053  0.69855  0.34721  1.0000
  C   C61       1.0  0.29174  0.64001  0.34776  1.0000
  H   H55       1.0  0.35020  0.72468  0.34254  1.0000
  H   H56       1.0  0.26560  0.62356  0.34351  1.0000
  H   H57       1.0  0.36675  0.64007  0.34420  1.0000
  C   C62       1.0  0.30148  0.59001  0.34278  1.0000
  C   C63       1.0  0.40025  0.70945  0.34118  1.0000
  O   O10       1.0  0.24715  0.66619  0.32007  1.0000
  O   O11       1.0  0.32410  0.57887  0.32276  1.0000
  O   O12       1.0  0.41132  0.74310  0.31990  1.0000
  C   C64       1.0  0.26795  0.73474  0.34065  1.0000
  C   C65       1.0  0.25660  0.74684  0.41364  1.0000
  C   C66       1.0  0.23150  0.75723  0.39806  1.0000
  N   N28       1.0  0.26837  0.74655  0.49731  1.0000
  H   H58       1.0  0.28294  0.73671  0.51075  1.0000
  H   H59       1.0  0.26454  0.75790  0.54696  1.0000
  N   N29       1.0  0.21534  0.76366  0.46684  1.0000
  H   H60       1.0  0.19550  0.76677  0.45748  1.0000
  H   H61       1.0  0.21895  0.76019  0.52811  1.0000
  N   N30       1.0  0.29026  0.72269  0.35464  1.0000
  H   H62       1.0  0.31047  0.73667  0.39137  1.0000
  C   C67       1.0  0.25530  0.53120  0.34125  1.0000
  C   C68       1.0  0.24275  0.50761  0.41388  1.0000
  C   C69       1.0  0.23308  0.97233  0.39842  1.0000
  N   N31       1.0  0.24181  0.51915  0.49738  1.0000
  H   H63       1.0  0.25076  0.54341  0.51125  1.0000
  H   H64       1.0  0.22945  0.50350  0.54558  1.0000
  N   N32       1.0  0.22759  0.95009  0.46742  1.0000
  H   H65       1.0  0.22480  0.92725  0.45822  1.0000
  H   H66       1.0  0.23201  0.95767  0.52834  1.0000
  N   N33       1.0  0.26757  0.56556  0.35596  1.0000
  H   H67       1.0  0.25346  0.57191  0.39174  1.0000
  C   C70       1.0  0.45907  0.72237  0.34134  1.0000
  C   C71       1.0  0.48240  0.73390  0.41461  1.0000
  C   C72       1.0  0.01797  0.75878  0.39912  1.0000
  N   N34       1.0  0.47004  0.72252  0.49834  1.0000
  H   H68       1.0  0.44556  0.70822  0.51140  1.0000
  H   H69       1.0  0.48497  0.72678  0.54878  1.0000
  N   N35       1.0  0.04067  0.77471  0.46786  1.0000
  H   H70       1.0  0.06376  0.79431  0.45873  1.0000
  H   H71       1.0  0.03382  0.77069  0.52927  1.0000
  N   N36       1.0  0.42470  0.70004  0.35512  1.0000
  H   H72       1.0  0.41848  0.67990  0.39215  1.0000
  C   C73       1.0  0.68412  0.31608  0.30242  1.0000
  C   C74       1.0  0.70747  0.30330  0.30850  1.0000
  C   C75       1.0  0.80420  0.17608  0.34744  1.0000
  C   C76       1.0  0.78083  0.18881  0.34093  1.0000
  C   C77       1.0  0.72019  0.25724  0.30954  1.0000
  C   C78       1.0  0.73138  0.24493  0.23669  1.0000
  C   C79       1.0  0.75674  0.23490  0.25215  1.0000
  N   N37       1.0  0.77321  0.22899  0.18321  1.0000
  H   H73       1.0  0.76987  0.23301  0.12212  1.0000
  H   H74       1.0  0.79312  0.22597  0.19244  1.0000
  N   N38       1.0  0.71925  0.24463  0.15310  1.0000
  H   H75       1.0  0.70435  0.25406  0.13944  1.0000
  H   H76       1.0  0.72275  0.23272  0.10418  1.0000
  N   N39       1.0  0.69797  0.26938  0.29526  1.0000
  H   H77       1.0  0.67766  0.25532  0.25896  1.0000
  C   C80       1.0  0.73289  0.46098  0.30993  1.0000
  C   C81       1.0  0.74488  0.48443  0.23692  1.0000
  C   C82       1.0  0.75550  0.01998  0.25272  1.0000
  N   N40       1.0  0.76243  0.04279  0.18416  1.0000
  H   H78       1.0  0.75963  0.03598  0.12276  1.0000
  H   H79       1.0  0.76554  0.06573  0.19358  1.0000
  N   N41       1.0  0.74417  0.47224  0.15315  1.0000
  H   H80       1.0  0.73403  0.44778  0.13983  1.0000
  H   H81       1.0  0.75502  0.48726  0.10299  1.0000
  N   N42       1.0  0.72081  0.42660  0.29600  1.0000
  H   H82       1.0  0.73466  0.42035  0.25881  1.0000
  C   C83       1.0  0.52934  0.27004  0.31060  1.0000
  C   C84       1.0  0.50594  0.25873  0.23753  1.0000
  C   C85       1.0  0.97053  0.23341  0.25281  1.0000
  N   N43       1.0  0.94820  0.21687  0.18379  1.0000
  H   H83       1.0  0.95571  0.22006  0.12284  1.0000
  H   H84       1.0  0.92530  0.19697  0.19312  1.0000
  N   N44       1.0  0.51789  0.27072  0.15392  1.0000
  H   H85       1.0  0.54226  0.28553  0.14040  1.0000
  H   H86       1.0  0.50256  0.26712  0.10473  1.0000
  N   N45       1.0  0.56369  0.29243  0.29661  1.0000
  H   H87       1.0  0.56996  0.31263  0.25984  1.0000
  C   C86       1.0  0.67418  0.36606  0.30359  1.0000
  C   C87       1.0  0.63810  0.34249  0.30370  1.0000
  C   C88       1.0  0.62419  0.30614  0.30278  1.0000
  C   C89       1.0  0.64777  0.29365  0.30239  1.0000
  C   C90       1.0  0.69663  0.35216  0.30294  1.0000
  H   H88       1.0  0.63806  0.26750  0.30625  1.0000
  H   H89       1.0  0.72276  0.36860  0.30743  1.0000
  H   H90       1.0  0.62168  0.35219  0.30842  1.0000
  C   C91       1.0  0.68697  0.40216  0.31036  1.0000
  C   C92       1.0  0.58806  0.28279  0.30886  1.0000
  O   O13       1.0  0.74119  0.32589  0.32907  1.0000
  O   O14       1.0  0.66442  0.41323  0.33193  1.0000
  O   O15       1.0  0.57693  0.24902  0.32886  1.0000
  C   C93       1.0  0.81421  0.12614  0.34842  1.0000
  C   C94       1.0  0.85028  0.14975  0.34823  1.0000
  C   C95       1.0  0.86415  0.18610  0.34768  1.0000
  C   C96       1.0  0.84053  0.19855  0.34721  1.0000
  C   C97       1.0  0.79174  0.14001  0.34776  1.0000
  H   H91       1.0  0.85020  0.22468  0.34254  1.0000
  H   H92       1.0  0.76561  0.12356  0.34351  1.0000
  H   H93       1.0  0.86675  0.14008  0.34420  1.0000
  C   C98       1.0  0.80148  0.09001  0.34278  1.0000
  C   C99       1.0  0.90025  0.20945  0.34118  1.0000
  O   O16       1.0  0.74715  0.16619  0.32007  1.0000
  O   O17       1.0  0.82410  0.07887  0.32276  1.0000
  O   O18       1.0  0.91132  0.24310  0.31990  1.0000
  C   C100      1.0  0.76795  0.23474  0.34065  1.0000
  C   C101      1.0  0.75660  0.24684  0.41364  1.0000
  C   C102      1.0  0.73150  0.25723  0.39806  1.0000
  N   N46       1.0  0.76838  0.24655  0.49731  1.0000
  H   H94       1.0  0.78294  0.23671  0.51075  1.0000
  H   H95       1.0  0.76454  0.25791  0.54696  1.0000
  N   N47       1.0  0.71534  0.26366  0.46684  1.0000
  H   H96       1.0  0.69550  0.26677  0.45748  1.0000
  H   H97       1.0  0.71895  0.26019  0.52811  1.0000
  N   N48       1.0  0.79026  0.22269  0.35464  1.0000
  H   H98       1.0  0.81047  0.23667  0.39137  1.0000
  C   C103      1.0  0.75530  0.03120  0.34125  1.0000
  C   C104      1.0  0.74275  0.00761  0.41388  1.0000
  C   C105      1.0  0.73308  0.47233  0.39842  1.0000
  N   N49       1.0  0.74181  0.01915  0.49738  1.0000
  H   H99       1.0  0.75076  0.04341  0.51125  1.0000
  H   H100      1.0  0.72945  0.00351  0.54558  1.0000
  N   N50       1.0  0.72759  0.45009  0.46742  1.0000
  H   H101      1.0  0.72480  0.42725  0.45822  1.0000
  H   H102      1.0  0.73201  0.45767  0.52834  1.0000
  N   N51       1.0  0.76757  0.06556  0.35596  1.0000
  H   H103      1.0  0.75346  0.07191  0.39174  1.0000
  C   C106      1.0  0.95907  0.22237  0.34134  1.0000
  C   C107      1.0  0.98240  0.23390  0.41461  1.0000
  C   C108      1.0  0.51797  0.25878  0.39912  1.0000
  N   N52       1.0  0.97004  0.22252  0.49834  1.0000
  H   H104      1.0  0.94556  0.20822  0.51140  1.0000
  H   H105      1.0  0.98497  0.22678  0.54878  1.0000
  N   N53       1.0  0.54067  0.27471  0.46786  1.0000
  H   H106      1.0  0.56376  0.29431  0.45873  1.0000
  H   H107      1.0  0.53382  0.27069  0.52927  1.0000
  N   N54       1.0  0.92470  0.20004  0.35512  1.0000
  H   H108      1.0  0.91848  0.17990  0.39215  1.0000
  C   C109      1.0  0.68412  0.81608  0.30242  1.0000
  C   C110      1.0  0.70747  0.80330  0.30850  1.0000
  C   C111      1.0  0.80420  0.67607  0.34744  1.0000
  C   C112      1.0  0.78083  0.68881  0.34093  1.0000
  C   C113      1.0  0.72019  0.75724  0.30954  1.0000
  C   C114      1.0  0.73138  0.74493  0.23669  1.0000
  C   C115      1.0  0.75674  0.73490  0.25215  1.0000
  N   N55       1.0  0.77321  0.72899  0.18321  1.0000
  H   H109      1.0  0.76988  0.73301  0.12212  1.0000
  H   H110      1.0  0.79312  0.72597  0.19244  1.0000
  N   N56       1.0  0.71925  0.74463  0.15310  1.0000
  H   H111      1.0  0.70435  0.75406  0.13944  1.0000
  H   H112      1.0  0.72275  0.73272  0.10418  1.0000
  N   N57       1.0  0.69797  0.76939  0.29526  1.0000
  H   H113      1.0  0.67766  0.75532  0.25896  1.0000
  C   C116      1.0  0.73289  0.96098  0.30993  1.0000
  C   C117      1.0  0.74488  0.98443  0.23692  1.0000
  C   C118      1.0  0.75550  0.51997  0.25272  1.0000
  N   N58       1.0  0.76243  0.54279  0.18416  1.0000
  H   H114      1.0  0.75963  0.53598  0.12276  1.0000
  H   H115      1.0  0.76554  0.56573  0.19358  1.0000
  N   N59       1.0  0.74417  0.97223  0.15315  1.0000
  H   H116      1.0  0.73404  0.94778  0.13983  1.0000
  H   H117      1.0  0.75502  0.98727  0.10299  1.0000
  N   N60       1.0  0.72081  0.92660  0.29600  1.0000
  H   H118      1.0  0.73466  0.92035  0.25881  1.0000
  C   C119      1.0  0.52934  0.77004  0.31060  1.0000
  C   C120      1.0  0.50594  0.75873  0.23753  1.0000
  C   C121      1.0  0.97053  0.73340  0.25281  1.0000
  N   N61       1.0  0.94820  0.71687  0.18379  1.0000
  H   H119      1.0  0.95571  0.72005  0.12284  1.0000
  H   H120      1.0  0.92530  0.69696  0.19312  1.0000
  N   N62       1.0  0.51789  0.77072  0.15392  1.0000
  H   H121      1.0  0.54226  0.78553  0.14040  1.0000
  H   H122      1.0  0.50256  0.76712  0.10473  1.0000
  N   N63       1.0  0.56369  0.79243  0.29661  1.0000
  H   H123      1.0  0.56996  0.81263  0.25984  1.0000
  C   C122      1.0  0.67418  0.86606  0.30359  1.0000
  C   C123      1.0  0.63810  0.84248  0.30370  1.0000
  C   C124      1.0  0.62419  0.80614  0.30278  1.0000
  C   C125      1.0  0.64777  0.79365  0.30239  1.0000
  C   C126      1.0  0.69663  0.85216  0.30294  1.0000
  H   H124      1.0  0.63806  0.76750  0.30625  1.0000
  H   H125      1.0  0.72276  0.86860  0.30743  1.0000
  H   H126      1.0  0.62168  0.85219  0.30842  1.0000
  C   C127      1.0  0.68697  0.90216  0.31036  1.0000
  C   C128      1.0  0.58806  0.78279  0.30886  1.0000
  O   O19       1.0  0.74119  0.82589  0.32907  1.0000
  O   O20       1.0  0.66442  0.91323  0.33193  1.0000
  O   O21       1.0  0.57693  0.74902  0.32886  1.0000
  C   C129      1.0  0.81421  0.62614  0.34842  1.0000
  C   C130      1.0  0.85028  0.64975  0.34823  1.0000
  C   C131      1.0  0.86414  0.68609  0.34768  1.0000
  C   C132      1.0  0.84053  0.69855  0.34721  1.0000
  C   C133      1.0  0.79174  0.64001  0.34776  1.0000
  H   H127      1.0  0.85020  0.72468  0.34254  1.0000
  H   H128      1.0  0.76560  0.62356  0.34351  1.0000
  H   H129      1.0  0.86674  0.64007  0.34420  1.0000
  C   C134      1.0  0.80148  0.59001  0.34278  1.0000
  C   C135      1.0  0.90025  0.70945  0.34118  1.0000
  O   O22       1.0  0.74715  0.66619  0.32007  1.0000
  O   O23       1.0  0.82410  0.57887  0.32276  1.0000
  O   O24       1.0  0.91132  0.74310  0.31990  1.0000
  C   C136      1.0  0.76795  0.73474  0.34065  1.0000
  C   C137      1.0  0.75660  0.74684  0.41364  1.0000
  C   C138      1.0  0.73150  0.75723  0.39806  1.0000
  N   N64       1.0  0.76837  0.74655  0.49731  1.0000
  H   H130      1.0  0.78294  0.73671  0.51075  1.0000
  H   H131      1.0  0.76454  0.75790  0.54696  1.0000
  N   N65       1.0  0.71534  0.76366  0.46684  1.0000
  H   H132      1.0  0.69550  0.76677  0.45748  1.0000
  H   H133      1.0  0.71895  0.76019  0.52811  1.0000
  N   N66       1.0  0.79026  0.72269  0.35464  1.0000
  H   H134      1.0  0.81047  0.73667  0.39137  1.0000
  C   C139      1.0  0.75530  0.53120  0.34125  1.0000
  C   C140      1.0  0.74275  0.50761  0.41388  1.0000
  C   C141      1.0  0.73308  0.97233  0.39842  1.0000
  N   N67       1.0  0.74181  0.51915  0.49738  1.0000
  H   H135      1.0  0.75076  0.54341  0.51125  1.0000
  H   H136      1.0  0.72945  0.50350  0.54558  1.0000
  N   N68       1.0  0.72759  0.95009  0.46742  1.0000
  H   H137      1.0  0.72480  0.92725  0.45822  1.0000
  H   H138      1.0  0.73201  0.95767  0.52834  1.0000
  N   N69       1.0  0.76757  0.56556  0.35596  1.0000
  H   H139      1.0  0.75346  0.57191  0.39174  1.0000
  C   C142      1.0  0.95907  0.72237  0.34134  1.0000
  C   C143      1.0  0.98240  0.73390  0.41461  1.0000
  C   C144      1.0  0.51797  0.75878  0.39912  1.0000
  N   N70       1.0  0.97003  0.72252  0.49834  1.0000
  H   H140      1.0  0.94556  0.70822  0.51140  1.0000
  H   H141      1.0  0.98497  0.72678  0.54878  1.0000
  N   N71       1.0  0.54067  0.77471  0.46786  1.0000
  H   H142      1.0  0.56376  0.79431  0.45873  1.0000
  H   H143      1.0  0.53382  0.77069  0.52927  1.0000
  N   N72       1.0  0.92470  0.70004  0.35512  1.0000
  H   H144      1.0  0.91848  0.67990  0.39215  1.0000
