data_image0
_chemical_formula_structural       C6OH2CHC3HNC3OH2CHC5HNCNC4HC3HOHCHNC5HC3HOHCHNC3OH2CHCHC6H3NC3HOHCHNC3OH2CHC3OH2CHC3HC6HCH3N2C3HOHCHN2C3OH2CHC4HC7H4NC3HOHCHC3HOHCHN2C3OH2CHC3OH2CHC7HC7HCH4N2C3HOHCHC3HOHCH
_chemical_formula_sum              "C128 O16 H72 N16"
_cell_length_a       31.7304
_cell_length_b       31.7304
_cell_length_c       14.8918
_cell_angle_alpha    90
_cell_angle_beta     90
_cell_angle_gamma    90

_space_group_name_H-M_alt    "P 1"
_space_group_IT_number       1

loop_
  _space_group_symop_operation_xyz
  'x, y, z'

loop_
  _atom_site_type_symbol
  _atom_site_label
  _atom_site_symmetry_multiplicity
  _atom_site_fract_x
  _atom_site_fract_y
  _atom_site_fract_z
  _atom_site_occupancy
  C   C1        1.0  0.01964  0.01963  0.34055  1.0000
  C   C2        1.0  0.00855  0.06283  0.35325  1.0000
  C   C3        1.0  0.06285  0.00854  0.32783  1.0000
  C   C4        1.0  0.27485  0.04009  0.31432  1.0000
  C   C5        1.0  0.23043  0.04022  0.31920  1.0000
  C   C6        1.0  0.29898  0.00373  0.33457  1.0000
  O   O1        1.0  0.21030  0.07692  0.29913  1.0000
  H   H1        1.0  0.28961  0.06735  0.29505  1.0000
  H   H2        1.0  0.20508  0.07634  0.23403  1.0000
  C   C7        1.0  0.34341  0.00612  0.32811  1.0000
  H   H3        1.0  0.35627  0.03367  0.30574  1.0000
  C   C8        1.0  0.09486  0.03988  0.33440  1.0000
  C   C9        1.0  0.46671  0.07173  0.37901  1.0000
  C   C10       1.0  0.43553  0.04055  0.37901  1.0000
  H   H4        1.0  0.40676  0.04868  0.40395  1.0000
  N   N1        1.0  0.13736  0.03390  0.33836  1.0000
  C   C11       1.0  0.77485  0.04009  0.31432  1.0000
  C   C12       1.0  0.73043  0.04022  0.31920  1.0000
  C   C13       1.0  0.79898  0.00373  0.33457  1.0000
  O   O2        1.0  0.71030  0.07692  0.29913  1.0000
  H   H5        1.0  0.78960  0.06735  0.29505  1.0000
  H   H6        1.0  0.70508  0.07634  0.23403  1.0000
  C   C14       1.0  0.84341  0.00612  0.32811  1.0000
  H   H7        1.0  0.85628  0.03367  0.30574  1.0000
  C   C15       1.0  0.51964  0.01963  0.34055  1.0000
  C   C16       1.0  0.59486  0.03988  0.33440  1.0000
  C   C17       1.0  0.50855  0.06283  0.35325  1.0000
  C   C18       1.0  0.96671  0.07173  0.37901  1.0000
  C   C19       1.0  0.93553  0.04055  0.37901  1.0000
  H   H8        1.0  0.90676  0.04868  0.40395  1.0000
  N   N2        1.0  0.63736  0.03390  0.33836  1.0000
  C   C20       1.0  0.56285  0.00854  0.32783  1.0000
  N   N3        1.0  0.03391  0.13735  0.34267  1.0000
  C   C21       1.0  0.06285  0.50854  0.32783  1.0000
  C   C22       1.0  0.03989  0.09485  0.34661  1.0000
  C   C23       1.0  0.07174  0.46670  0.30203  1.0000
  C   C24       1.0  0.04059  0.43550  0.30221  1.0000
  H   H9        1.0  0.04870  0.40676  0.27709  1.0000
  C   C25       1.0  0.00374  0.29897  0.34652  1.0000
  C   C26       1.0  0.04010  0.27483  0.36676  1.0000
  C   C27       1.0  0.04023  0.23042  0.36190  1.0000
  H   H10       1.0  0.06737  0.28959  0.38602  1.0000
  O   O3        1.0  0.07693  0.21028  0.38192  1.0000
  H   H11       1.0  0.07636  0.20506  0.44702  1.0000
  C   C28       1.0  0.00614  0.34340  0.35292  1.0000
  H   H12       1.0  0.03370  0.35625  0.37531  1.0000
  N   N4        1.0  0.03391  0.63735  0.34267  1.0000
  C   C29       1.0  0.01964  0.51963  0.34055  1.0000
  C   C30       1.0  0.03989  0.59485  0.34661  1.0000
  C   C31       1.0  0.00855  0.56283  0.35325  1.0000
  C   C32       1.0  0.07174  0.96670  0.30203  1.0000
  C   C33       1.0  0.04059  0.93550  0.30221  1.0000
  H   H13       1.0  0.04870  0.90676  0.27709  1.0000
  C   C34       1.0  0.00374  0.79896  0.34652  1.0000
  C   C35       1.0  0.04010  0.77483  0.36676  1.0000
  C   C36       1.0  0.04023  0.73042  0.36190  1.0000
  H   H14       1.0  0.06737  0.78959  0.38602  1.0000
  O   O4        1.0  0.07693  0.71028  0.38192  1.0000
  H   H15       1.0  0.07636  0.70506  0.44702  1.0000
  C   C37       1.0  0.00614  0.84340  0.35292  1.0000
  H   H16       1.0  0.03370  0.85625  0.37531  1.0000
  N   N5        1.0  0.47337  0.36990  0.33841  1.0000
  C   C38       1.0  0.96718  0.23242  0.31437  1.0000
  C   C39       1.0  0.96704  0.27684  0.31924  1.0000
  C   C40       1.0  0.00354  0.20829  0.33461  1.0000
  O   O5        1.0  0.93035  0.29697  0.29919  1.0000
  H   H17       1.0  0.93991  0.21766  0.29510  1.0000
  H   H18       1.0  0.93093  0.30219  0.23408  1.0000
  C   C41       1.0  0.00114  0.16386  0.32817  1.0000
  H   H19       1.0  0.97359  0.15099  0.30576  1.0000
  C   C42       1.0  0.08247  0.08246  0.34052  1.0000
  H   H20       1.0  0.10536  0.10535  0.34052  1.0000
  C   C43       1.0  0.48764  0.48762  0.34056  1.0000
  C   C44       1.0  0.49873  0.44442  0.32787  1.0000
  C   C45       1.0  0.46739  0.41241  0.33443  1.0000
  C   C46       1.0  0.42481  0.42479  0.34053  1.0000
  C   C47       1.0  0.41242  0.46737  0.34662  1.0000
  C   C48       1.0  0.44443  0.99871  0.35326  1.0000
  H   H21       1.0  0.40193  0.40191  0.34052  1.0000
  H   H22       1.0  0.10051  0.45857  0.27710  1.0000
  H   H23       1.0  0.45858  0.10050  0.40396  1.0000
  N   N6        1.0  0.36992  0.47335  0.34265  1.0000
  C   C49       1.0  0.20830  0.00353  0.34648  1.0000
  C   C50       1.0  0.23243  0.96717  0.36673  1.0000
  C   C51       1.0  0.27685  0.96704  0.36186  1.0000
  H   H24       1.0  0.21767  0.93990  0.38599  1.0000
  O   O6        1.0  0.29698  0.93033  0.38188  1.0000
  H   H25       1.0  0.30220  0.93090  0.44698  1.0000
  C   C52       1.0  0.16387  0.00113  0.35288  1.0000
  H   H26       1.0  0.15101  0.97358  0.37529  1.0000
  N   N7        1.0  0.47337  0.86990  0.33841  1.0000
  C   C53       1.0  0.96718  0.73242  0.31437  1.0000
  C   C54       1.0  0.96704  0.77683  0.31924  1.0000
  C   C55       1.0  0.00354  0.70829  0.33461  1.0000
  O   O7        1.0  0.93035  0.79697  0.29919  1.0000
  H   H27       1.0  0.93991  0.71766  0.29510  1.0000
  H   H28       1.0  0.93093  0.80219  0.23408  1.0000
  C   C56       1.0  0.00114  0.66386  0.32817  1.0000
  H   H29       1.0  0.97359  0.65099  0.30576  1.0000
  C   C57       1.0  0.27485  0.54009  0.31432  1.0000
  C   C58       1.0  0.23043  0.54022  0.31920  1.0000
  C   C59       1.0  0.29898  0.50372  0.33457  1.0000
  O   O8        1.0  0.21030  0.57692  0.29913  1.0000
  H   H30       1.0  0.28961  0.56735  0.29505  1.0000
  H   H31       1.0  0.20508  0.57634  0.23403  1.0000
  C   C60       1.0  0.34341  0.50612  0.32811  1.0000
  H   H32       1.0  0.35627  0.53367  0.30574  1.0000
  C   C61       1.0  0.09486  0.53988  0.33440  1.0000
  C   C62       1.0  0.08247  0.58246  0.34052  1.0000
  C   C63       1.0  0.46671  0.57173  0.37901  1.0000
  H   H33       1.0  0.10536  0.60535  0.34052  1.0000
  C   C64       1.0  0.48764  0.98762  0.34056  1.0000
  C   C65       1.0  0.49873  0.94442  0.32787  1.0000
  C   C66       1.0  0.46739  0.91241  0.33443  1.0000
  C   C67       1.0  0.42481  0.92479  0.34053  1.0000
  C   C68       1.0  0.41242  0.96737  0.34662  1.0000
  C   C69       1.0  0.44443  0.49871  0.35326  1.0000
  H   H34       1.0  0.40193  0.90191  0.34052  1.0000
  C   C70       1.0  0.43553  0.54055  0.37901  1.0000
  H   H35       1.0  0.10051  0.95857  0.27710  1.0000
  H   H36       1.0  0.40676  0.54868  0.40395  1.0000
  H   H37       1.0  0.45858  0.60050  0.40396  1.0000
  N   N8        1.0  0.13736  0.53390  0.33836  1.0000
  N   N9        1.0  0.36992  0.97335  0.34265  1.0000
  C   C71       1.0  0.20830  0.50353  0.34648  1.0000
  C   C72       1.0  0.23243  0.46717  0.36673  1.0000
  C   C73       1.0  0.27685  0.46704  0.36186  1.0000
  H   H38       1.0  0.21767  0.43990  0.38599  1.0000
  O   O9        1.0  0.29698  0.43033  0.38188  1.0000
  H   H39       1.0  0.30220  0.43090  0.44698  1.0000
  C   C74       1.0  0.16387  0.50113  0.35288  1.0000
  H   H40       1.0  0.15101  0.47358  0.37529  1.0000
  N   N10       1.0  0.53391  0.13735  0.34267  1.0000
  N   N11       1.0  0.97337  0.36990  0.33841  1.0000
  C   C75       1.0  0.46718  0.23242  0.31437  1.0000
  C   C76       1.0  0.46704  0.27684  0.31924  1.0000
  C   C77       1.0  0.50354  0.20829  0.33461  1.0000
  O   O10       1.0  0.43035  0.29697  0.29919  1.0000
  H   H41       1.0  0.43991  0.21766  0.29510  1.0000
  H   H42       1.0  0.43093  0.30219  0.23408  1.0000
  C   C78       1.0  0.50114  0.16386  0.32817  1.0000
  H   H43       1.0  0.47359  0.15099  0.30576  1.0000
  C   C79       1.0  0.56285  0.50854  0.32783  1.0000
  C   C80       1.0  0.58247  0.08246  0.34052  1.0000
  C   C81       1.0  0.53989  0.09485  0.34661  1.0000
  C   C82       1.0  0.57174  0.46670  0.30203  1.0000
  H   H44       1.0  0.60536  0.10535  0.34052  1.0000
  C   C83       1.0  0.98764  0.48762  0.34056  1.0000
  C   C84       1.0  0.99873  0.44442  0.32787  1.0000
  C   C85       1.0  0.96739  0.41241  0.33443  1.0000
  C   C86       1.0  0.92481  0.42479  0.34053  1.0000
  C   C87       1.0  0.91242  0.46737  0.34662  1.0000
  C   C88       1.0  0.94444  0.99871  0.35326  1.0000
  C   C89       1.0  0.54059  0.43550  0.30221  1.0000
  H   H45       1.0  0.90193  0.40191  0.34052  1.0000
  H   H46       1.0  0.54870  0.40676  0.27709  1.0000
  H   H47       1.0  0.60051  0.45857  0.27710  1.0000
  H   H48       1.0  0.95858  0.10050  0.40396  1.0000
  N   N12       1.0  0.86992  0.47335  0.34265  1.0000
  C   C90       1.0  0.50374  0.29897  0.34652  1.0000
  C   C91       1.0  0.54010  0.27483  0.36676  1.0000
  C   C92       1.0  0.54023  0.23042  0.36190  1.0000
  H   H49       1.0  0.56737  0.28959  0.38602  1.0000
  O   O11       1.0  0.57693  0.21028  0.38192  1.0000
  H   H50       1.0  0.57636  0.20506  0.44702  1.0000
  C   C93       1.0  0.50614  0.34340  0.35292  1.0000
  H   H51       1.0  0.53370  0.35625  0.37531  1.0000
  C   C94       1.0  0.70830  0.00353  0.34648  1.0000
  C   C95       1.0  0.73243  0.96717  0.36673  1.0000
  C   C96       1.0  0.77685  0.96704  0.36186  1.0000
  H   H52       1.0  0.71767  0.93990  0.38599  1.0000
  O   O12       1.0  0.79698  0.93033  0.38188  1.0000
  H   H53       1.0  0.80220  0.93090  0.44698  1.0000
  C   C97       1.0  0.66387  0.00113  0.35288  1.0000
  H   H54       1.0  0.65101  0.97358  0.37529  1.0000
  N   N13       1.0  0.53391  0.63735  0.34267  1.0000
  N   N14       1.0  0.97337  0.86990  0.33841  1.0000
  C   C98       1.0  0.46718  0.73242  0.31437  1.0000
  C   C99       1.0  0.46704  0.77683  0.31924  1.0000
  C   C100      1.0  0.50354  0.70829  0.33461  1.0000
  O   O13       1.0  0.43035  0.79697  0.29919  1.0000
  H   H55       1.0  0.43991  0.71766  0.29510  1.0000
  H   H56       1.0  0.43093  0.80219  0.23408  1.0000
  C   C101      1.0  0.50114  0.66386  0.32817  1.0000
  H   H57       1.0  0.47359  0.65099  0.30576  1.0000
  C   C102      1.0  0.77485  0.54009  0.31432  1.0000
  C   C103      1.0  0.73043  0.54022  0.31920  1.0000
  C   C104      1.0  0.79898  0.50372  0.33457  1.0000
  O   O14       1.0  0.71030  0.57692  0.29913  1.0000
  H   H58       1.0  0.78960  0.56735  0.29505  1.0000
  H   H59       1.0  0.70508  0.57634  0.23403  1.0000
  C   C105      1.0  0.84341  0.50612  0.32811  1.0000
  H   H60       1.0  0.85628  0.53367  0.30574  1.0000
  C   C106      1.0  0.51964  0.51963  0.34055  1.0000
  C   C107      1.0  0.59486  0.53988  0.33440  1.0000
  C   C108      1.0  0.58247  0.58246  0.34052  1.0000
  C   C109      1.0  0.53989  0.59485  0.34661  1.0000
  C   C110      1.0  0.50855  0.56283  0.35325  1.0000
  C   C111      1.0  0.57174  0.96670  0.30203  1.0000
  C   C112      1.0  0.96671  0.57173  0.37901  1.0000
  H   H61       1.0  0.60536  0.60535  0.34052  1.0000
  C   C113      1.0  0.98764  0.98762  0.34056  1.0000
  C   C114      1.0  0.99873  0.94442  0.32787  1.0000
  C   C115      1.0  0.96739  0.91241  0.33443  1.0000
  C   C116      1.0  0.92481  0.92479  0.34053  1.0000
  C   C117      1.0  0.91242  0.96737  0.34662  1.0000
  C   C118      1.0  0.94444  0.49871  0.35326  1.0000
  C   C119      1.0  0.54059  0.93550  0.30221  1.0000
  H   H62       1.0  0.90193  0.90191  0.34052  1.0000
  C   C120      1.0  0.93553  0.54055  0.37901  1.0000
  H   H63       1.0  0.54870  0.90676  0.27709  1.0000
  H   H64       1.0  0.60051  0.95857  0.27710  1.0000
  H   H65       1.0  0.90676  0.54868  0.40395  1.0000
  H   H66       1.0  0.95858  0.60050  0.40396  1.0000
  N   N15       1.0  0.63736  0.53390  0.33836  1.0000
  N   N16       1.0  0.86992  0.97335  0.34265  1.0000
  C   C121      1.0  0.50374  0.79896  0.34652  1.0000
  C   C122      1.0  0.54010  0.77483  0.36676  1.0000
  C   C123      1.0  0.54023  0.73042  0.36190  1.0000
  H   H67       1.0  0.56737  0.78959  0.38602  1.0000
  O   O15       1.0  0.57693  0.71028  0.38192  1.0000
  H   H68       1.0  0.57636  0.70506  0.44702  1.0000
  C   C124      1.0  0.50614  0.84340  0.35292  1.0000
  H   H69       1.0  0.53370  0.85625  0.37531  1.0000
  C   C125      1.0  0.70830  0.50353  0.34648  1.0000
  C   C126      1.0  0.73243  0.46717  0.36673  1.0000
  C   C127      1.0  0.77685  0.46704  0.36186  1.0000
  H   H70       1.0  0.71767  0.43990  0.38599  1.0000
  O   O16       1.0  0.79698  0.43033  0.38188  1.0000
  H   H71       1.0  0.80220  0.43090  0.44698  1.0000
  C   C128      1.0  0.66387  0.50113  0.35288  1.0000
  H   H72       1.0  0.65101  0.47358  0.37529  1.0000
