data_image0
_chemical_formula_structural       COHCOH3C4H2C4OH4C6O2H4C6O2H4C3HCH2C3HCH3C3HCH3C3HCH3C3HCH3C3HCH3C3HOC2OC3HOC3OHC3HOC3OHC3HCH3C3HCH3C3HCH3C3HCH3C3HCH3C3HCH3C4OH4C6O2H4C6O2H4C3HCH2C3HCH3C3HCH3C3HCH3C3HCH3C3HCH3C3HOC2OC3HOC3OHC3HOC3OHC3HCH3C3HCH3C3HCH3C3HCH3C3HCH3C3HCH3C6O2H3C6O2H4C6O2H4C3HCH3C3HCH3C3HCH3C3HCH3C3HCH3C3HCH3C3HOC3OHC3HOC3OHC3HOC3OHC3HCH3C3HCH3C3HCH3C3HCH3C3HCH3C3HCH3C6O2H3C6O2H4C6O2H4C3HCH3C3HCH3C3HCH3C3HCH3C3HCH3C3HCH3C3HOC3OHC3HOC3OHC3HOC3OHC3HCH3C3HCH3C3HCH3C3HCH3C3HCH3C3HCH3
_chemical_formula_sum              "C336 O48 H264"
_cell_length_a       46.4745
_cell_length_b       46.4745
_cell_length_c       14.957
_cell_angle_alpha    90
_cell_angle_beta     90
_cell_angle_gamma    120

_space_group_name_H-M_alt    "P 1"
_space_group_IT_number       1

loop_
  _space_group_symop_operation_xyz
  'x, y, z'

loop_
  _atom_site_type_symbol
  _atom_site_label
  _atom_site_symmetry_multiplicity
  _atom_site_fract_x
  _atom_site_fract_y
  _atom_site_fract_z
  _atom_site_occupancy
  C   C1        1.0  0.02011  0.26083  0.33039  1.0000
  O   O1        1.0  0.02627  0.31518  0.29047  1.0000
  H   H1        1.0  0.02817  0.22028  0.35945  1.0000
  C   C2        1.0  0.02012  0.76083  0.33039  1.0000
  O   O2        1.0  0.02627  0.81518  0.29047  1.0000
  H   H2        1.0  0.02817  0.72028  0.35945  1.0000
  H   H3        1.0  0.02166  0.31040  0.22630  1.0000
  H   H4        1.0  0.02166  0.81040  0.22630  1.0000
  C   C3        1.0  0.03937  0.29636  0.31944  1.0000
  C   C4        1.0  0.03924  0.24485  0.34445  1.0000
  C   C5        1.0  0.03937  0.79636  0.31944  1.0000
  C   C6        1.0  0.03924  0.74485  0.34445  1.0000
  H   H5        1.0  0.06780  0.24187  0.17525  1.0000
  H   H6        1.0  0.06780  0.74187  0.17525  1.0000
  C   C7        1.0  0.48416  0.24200  0.33043  1.0000
  C   C8        1.0  0.42997  0.18846  0.33229  1.0000
  C   C9        1.0  0.46489  0.20647  0.31952  1.0000
  C   C10       1.0  0.07430  0.31437  0.33207  1.0000
  O   O3        1.0  0.47799  0.18765  0.29052  1.0000
  H   H7        1.0  0.98259  0.19242  0.22634  1.0000
  H   H8        1.0  0.52166  0.31040  0.22630  1.0000
  H   H9        1.0  0.37152  0.18569  0.27931  1.0000
  H   H10       1.0  0.13274  0.31715  0.27885  1.0000
  C   C11       1.0  0.26157  0.24290  0.33027  1.0000
  C   C12       1.0  0.31511  0.24225  0.33193  1.0000
  C   C13       1.0  0.29710  0.25916  0.31917  1.0000
  C   C14       1.0  0.24275  0.26004  0.33034  1.0000
  C   C15       1.0  0.20723  0.24377  0.31938  1.0000
  C   C16       1.0  0.18922  0.26067  0.33238  1.0000
  O   O4        1.0  0.31591  0.29110  0.29023  1.0000
  O   O5        1.0  0.18839  0.21183  0.29050  1.0000
  H   H11       1.0  0.31113  0.29093  0.22607  1.0000
  H   H12       1.0  0.19315  0.21199  0.22632  1.0000
  H   H13       1.0  0.31791  0.18658  0.27903  1.0000
  H   H14       1.0  0.18638  0.31633  0.27972  1.0000
  C   C17       1.0  0.26077  0.01943  0.33036  1.0000
  C   C18       1.0  0.26142  0.07361  0.33211  1.0000
  C   C19       1.0  0.24450  0.03869  0.31942  1.0000
  C   C20       1.0  0.24363  0.48347  0.33037  1.0000
  C   C21       1.0  0.25991  0.46422  0.31940  1.0000
  C   C22       1.0  0.24300  0.42929  0.33202  1.0000
  O   O6        1.0  0.21255  0.02558  0.29063  1.0000
  O   O7        1.0  0.29183  0.47733  0.29035  1.0000
  H   H15       1.0  0.21268  0.52097  0.22644  1.0000
  H   H16       1.0  0.29164  0.98192  0.22618  1.0000
  H   H17       1.0  0.31707  0.13209  0.27923  1.0000
  H   H18       1.0  0.18731  0.37082  0.27906  1.0000
  C   C23       1.0  0.15409  0.24443  0.33581  1.0000
  C   C24       1.0  0.10627  0.24254  0.25844  1.0000
  C   C25       1.0  0.13663  0.24234  0.25675  1.0000
  H   H19       1.0  0.14816  0.24470  0.19648  1.0000
  C   C26       1.0  0.09206  0.24370  0.17001  1.0000
  H   H20       1.0  0.08891  0.22296  0.12863  1.0000
  H   H21       1.0  0.10891  0.26693  0.13594  1.0000
  C   C27       1.0  0.25927  0.41042  0.33528  1.0000
  C   C28       1.0  0.26098  0.36437  0.25847  1.0000
  C   C29       1.0  0.26121  0.39494  0.25636  1.0000
  H   H22       1.0  0.25880  0.40403  0.19603  1.0000
  C   C30       1.0  0.25977  0.34890  0.17015  1.0000
  H   H23       1.0  0.26162  0.32649  0.17552  1.0000
  H   H24       1.0  0.28048  0.36645  0.12860  1.0000
  H   H25       1.0  0.23651  0.34246  0.13614  1.0000
  C   C31       1.0  0.09321  0.34951  0.33515  1.0000
  C   C32       1.0  0.13926  0.39733  0.25836  1.0000
  C   C33       1.0  0.10870  0.36699  0.25631  1.0000
  H   H26       1.0  0.09959  0.35550  0.19597  1.0000
  C   C34       1.0  0.15470  0.41161  0.17002  1.0000
  H   H27       1.0  0.17711  0.43588  0.17538  1.0000
  H   H28       1.0  0.13713  0.41477  0.12856  1.0000
  H   H29       1.0  0.16113  0.39480  0.13593  1.0000
  C   C35       1.0  0.35025  0.25851  0.33509  1.0000
  C   C36       1.0  0.39809  0.26027  0.25843  1.0000
  C   C37       1.0  0.36775  0.26050  0.25629  1.0000
  H   H30       1.0  0.35627  0.25811  0.19592  1.0000
  C   C38       1.0  0.41238  0.25910  0.17013  1.0000
  H   H31       1.0  0.43665  0.26095  0.17554  1.0000
  H   H32       1.0  0.41556  0.27983  0.12864  1.0000
  H   H33       1.0  0.39558  0.23586  0.13604  1.0000
  C   C39       1.0  0.24518  0.09250  0.33560  1.0000
  C   C40       1.0  0.24334  0.13850  0.25852  1.0000
  C   C41       1.0  0.24316  0.10795  0.25665  1.0000
  H   H34       1.0  0.24553  0.09882  0.19634  1.0000
  C   C42       1.0  0.24449  0.15389  0.17011  1.0000
  H   H35       1.0  0.24260  0.17628  0.17536  1.0000
  H   H36       1.0  0.22377  0.13628  0.12868  1.0000
  H   H37       1.0  0.26774  0.16032  0.13605  1.0000
  C   C43       1.0  0.41106  0.15330  0.33547  1.0000
  C   C44       1.0  0.36512  0.10554  0.25831  1.0000
  C   C45       1.0  0.39568  0.13591  0.25643  1.0000
  H   H38       1.0  0.40482  0.14744  0.19616  1.0000
  C   C46       1.0  0.34969  0.09129  0.16995  1.0000
  H   H39       1.0  0.32728  0.06703  0.17529  1.0000
  H   H40       1.0  0.36727  0.08815  0.12848  1.0000
  H   H41       1.0  0.34327  0.10811  0.13590  1.0000
  C   C47       1.0  0.46503  0.25798  0.34458  1.0000
  C   C48       1.0  0.43003  0.24111  0.34320  1.0000
  C   C49       1.0  0.41267  0.20614  0.33953  1.0000
  H   H42       1.0  0.47610  0.28256  0.35946  1.0000
  O   O8        1.0  0.37875  0.18936  0.34213  1.0000
  C   C50       1.0  0.09161  0.29669  0.33917  1.0000
  C   C51       1.0  0.07425  0.26172  0.34302  1.0000
  O   O9        1.0  0.12553  0.31346  0.34169  1.0000
  C   C52       1.0  0.24560  0.20780  0.34445  1.0000
  C   C53       1.0  0.26246  0.18966  0.34295  1.0000
  C   C54       1.0  0.29744  0.20728  0.33919  1.0000
  H   H43       1.0  0.22103  0.19430  0.35944  1.0000
  O   O10       1.0  0.31422  0.19014  0.34184  1.0000
  C   C55       1.0  0.20689  0.29565  0.33974  1.0000
  C   C56       1.0  0.24187  0.31327  0.34321  1.0000
  C   C57       1.0  0.25874  0.29514  0.34449  1.0000
  O   O11       1.0  0.19011  0.31279  0.34251  1.0000
  H   H44       1.0  0.28333  0.30865  0.35930  1.0000
  C   C58       1.0  0.29588  0.03856  0.34439  1.0000
  C   C59       1.0  0.31402  0.07357  0.34306  1.0000
  C   C60       1.0  0.29640  0.09092  0.33938  1.0000
  H   H45       1.0  0.30938  0.02749  0.35936  1.0000
  O   O12       1.0  0.31354  0.12484  0.34205  1.0000
  C   C61       1.0  0.20802  0.41198  0.33926  1.0000
  C   C62       1.0  0.19039  0.42932  0.34299  1.0000
  C   C63       1.0  0.20853  0.46433  0.34449  1.0000
  O   O13       1.0  0.19089  0.37805  0.34188  1.0000
  H   H46       1.0  0.19501  0.47539  0.35941  1.0000
  C   C64       1.0  0.13921  0.24451  0.41809  1.0000
  C   C65       1.0  0.10894  0.24476  0.42267  1.0000
  C   C66       1.0  0.09259  0.24481  0.34199  1.0000
  H   H47       1.0  0.15262  0.24820  0.47561  1.0000
  C   C67       1.0  0.09629  0.24761  0.51197  1.0000
  H   H48       1.0  0.11028  0.24514  0.56721  1.0000
  H   H49       1.0  0.07042  0.22801  0.51921  1.0000
  H   H50       1.0  0.09773  0.27169  0.51859  1.0000
  C   C68       1.0  0.25923  0.39565  0.41784  1.0000
  C   C69       1.0  0.25891  0.36510  0.42267  1.0000
  C   C70       1.0  0.25874  0.34851  0.34226  1.0000
  H   H51       1.0  0.25562  0.40549  0.47526  1.0000
  C   C71       1.0  0.25603  0.34966  0.51207  1.0000
  H   H52       1.0  0.25854  0.36619  0.56719  1.0000
  H   H53       1.0  0.27560  0.34336  0.51943  1.0000
  H   H54       1.0  0.23193  0.32706  0.51879  1.0000
  C   C72       1.0  0.10804  0.36427  0.41767  1.0000
  C   C73       1.0  0.13858  0.39450  0.42251  1.0000
  C   C74       1.0  0.15515  0.41095  0.34211  1.0000
  H   H55       1.0  0.09822  0.35082  0.47512  1.0000
  C   C75       1.0  0.15404  0.40706  0.51190  1.0000
  H   H56       1.0  0.13753  0.39303  0.56703  1.0000
  H   H57       1.0  0.16032  0.43293  0.51932  1.0000
  H   H58       1.0  0.17665  0.40558  0.51854  1.0000
  C   C76       1.0  0.36498  0.25844  0.41766  1.0000
  C   C77       1.0  0.39521  0.25813  0.42259  1.0000
  C   C78       1.0  0.41168  0.25800  0.34223  1.0000
  H   H59       1.0  0.35152  0.25482  0.47507  1.0000
  C   C79       1.0  0.40774  0.25523  0.51202  1.0000
  H   H60       1.0  0.39370  0.25772  0.56710  1.0000
  H   H61       1.0  0.43361  0.27481  0.51946  1.0000
  H   H62       1.0  0.40625  0.23113  0.51870  1.0000
  C   C80       1.0  0.24519  0.10737  0.41795  1.0000
  C   C81       1.0  0.24545  0.13789  0.42267  1.0000
  C   C82       1.0  0.24558  0.15442  0.34219  1.0000
  H   H63       1.0  0.24884  0.09760  0.47544  1.0000
  C   C83       1.0  0.24832  0.15338  0.51200  1.0000
  H   H64       1.0  0.24585  0.13689  0.56719  1.0000
  H   H65       1.0  0.22873  0.15965  0.51930  1.0000
  H   H66       1.0  0.27241  0.17600  0.51863  1.0000
  C   C84       1.0  0.39622  0.13856  0.41795  1.0000
  C   C85       1.0  0.36569  0.10829  0.42267  1.0000
  C   C86       1.0  0.34928  0.09192  0.34203  1.0000
  H   H67       1.0  0.40599  0.15200  0.47542  1.0000
  C   C87       1.0  0.35020  0.09567  0.51200  1.0000
  H   H68       1.0  0.36668  0.10970  0.56719  1.0000
  H   H69       1.0  0.34396  0.06981  0.51931  1.0000
  H   H70       1.0  0.32756  0.09710  0.51863  1.0000
  C   C88       1.0  0.48416  0.74200  0.33043  1.0000
  C   C89       1.0  0.42997  0.68846  0.33229  1.0000
  C   C90       1.0  0.46489  0.70647  0.31952  1.0000
  C   C91       1.0  0.07430  0.81437  0.33207  1.0000
  O   O14       1.0  0.47800  0.68765  0.29052  1.0000
  H   H71       1.0  0.98258  0.69242  0.22634  1.0000
  H   H72       1.0  0.52166  0.81040  0.22630  1.0000
  H   H73       1.0  0.37152  0.68569  0.27931  1.0000
  H   H74       1.0  0.13275  0.81715  0.27885  1.0000
  C   C92       1.0  0.26157  0.74290  0.33027  1.0000
  C   C93       1.0  0.31511  0.74225  0.33193  1.0000
  C   C94       1.0  0.29710  0.75917  0.31917  1.0000
  C   C95       1.0  0.24276  0.76004  0.33034  1.0000
  C   C96       1.0  0.20723  0.74377  0.31938  1.0000
  C   C97       1.0  0.18922  0.76067  0.33238  1.0000
  O   O15       1.0  0.31592  0.79110  0.29023  1.0000
  O   O16       1.0  0.18839  0.71183  0.29050  1.0000
  H   H75       1.0  0.31113  0.79093  0.22607  1.0000
  H   H76       1.0  0.19315  0.71199  0.22632  1.0000
  H   H77       1.0  0.31791  0.68658  0.27903  1.0000
  H   H78       1.0  0.18638  0.81633  0.27972  1.0000
  C   C98       1.0  0.26077  0.51943  0.33036  1.0000
  C   C99       1.0  0.26142  0.57361  0.33211  1.0000
  C   C100      1.0  0.24450  0.53869  0.31942  1.0000
  C   C101      1.0  0.24363  0.98347  0.33037  1.0000
  C   C102      1.0  0.25991  0.96422  0.31940  1.0000
  C   C103      1.0  0.24300  0.92929  0.33202  1.0000
  O   O17       1.0  0.21255  0.52558  0.29063  1.0000
  O   O18       1.0  0.29183  0.97733  0.29035  1.0000
  H   H79       1.0  0.21268  0.02097  0.22644  1.0000
  H   H80       1.0  0.29164  0.48192  0.22618  1.0000
  H   H81       1.0  0.31707  0.63209  0.27923  1.0000
  H   H82       1.0  0.18731  0.87082  0.27906  1.0000
  C   C104      1.0  0.15409  0.74443  0.33581  1.0000
  C   C105      1.0  0.10627  0.74253  0.25844  1.0000
  C   C106      1.0  0.13663  0.74235  0.25675  1.0000
  H   H83       1.0  0.14816  0.74470  0.19648  1.0000
  C   C107      1.0  0.09206  0.74370  0.17001  1.0000
  H   H84       1.0  0.08891  0.72296  0.12863  1.0000
  H   H85       1.0  0.10891  0.76693  0.13594  1.0000
  C   C108      1.0  0.25927  0.91042  0.33528  1.0000
  C   C109      1.0  0.26098  0.86437  0.25847  1.0000
  C   C110      1.0  0.26121  0.89494  0.25636  1.0000
  H   H86       1.0  0.25880  0.90403  0.19603  1.0000
  C   C111      1.0  0.25977  0.84890  0.17015  1.0000
  H   H87       1.0  0.26162  0.82649  0.17552  1.0000
  H   H88       1.0  0.28048  0.86645  0.12860  1.0000
  H   H89       1.0  0.23651  0.84246  0.13614  1.0000
  C   C112      1.0  0.09321  0.84952  0.33515  1.0000
  C   C113      1.0  0.13927  0.89734  0.25836  1.0000
  C   C114      1.0  0.10870  0.86699  0.25631  1.0000
  H   H90       1.0  0.09959  0.85550  0.19597  1.0000
  C   C115      1.0  0.15470  0.91161  0.17002  1.0000
  H   H91       1.0  0.17711  0.93588  0.17538  1.0000
  H   H92       1.0  0.13713  0.91477  0.12856  1.0000
  H   H93       1.0  0.16113  0.89480  0.13593  1.0000
  C   C116      1.0  0.35025  0.75851  0.33509  1.0000
  C   C117      1.0  0.39809  0.76027  0.25843  1.0000
  C   C118      1.0  0.36775  0.76050  0.25629  1.0000
  H   H94       1.0  0.35628  0.75811  0.19592  1.0000
  C   C119      1.0  0.41239  0.75910  0.17013  1.0000
  H   H95       1.0  0.43665  0.76095  0.17554  1.0000
  H   H96       1.0  0.41556  0.77983  0.12864  1.0000
  H   H97       1.0  0.39558  0.73586  0.13604  1.0000
  C   C120      1.0  0.24518  0.59250  0.33560  1.0000
  C   C121      1.0  0.24334  0.63850  0.25852  1.0000
  C   C122      1.0  0.24316  0.60795  0.25665  1.0000
  H   H98       1.0  0.24553  0.59882  0.19634  1.0000
  C   C123      1.0  0.24449  0.65389  0.17011  1.0000
  H   H99       1.0  0.24260  0.67628  0.17536  1.0000
  H   H100      1.0  0.22377  0.63628  0.12868  1.0000
  H   H101      1.0  0.26774  0.66033  0.13605  1.0000
  C   C124      1.0  0.41107  0.65331  0.33547  1.0000
  C   C125      1.0  0.36512  0.60554  0.25831  1.0000
  C   C126      1.0  0.39568  0.63591  0.25643  1.0000
  H   H102      1.0  0.40482  0.64744  0.19616  1.0000
  C   C127      1.0  0.34969  0.59129  0.16995  1.0000
  H   H103      1.0  0.32728  0.56703  0.17529  1.0000
  H   H104      1.0  0.36727  0.58815  0.12848  1.0000
  H   H105      1.0  0.34327  0.60811  0.13590  1.0000
  C   C128      1.0  0.46503  0.75798  0.34458  1.0000
  C   C129      1.0  0.43003  0.74111  0.34320  1.0000
  C   C130      1.0  0.41267  0.70614  0.33953  1.0000
  H   H106      1.0  0.47611  0.78256  0.35946  1.0000
  O   O19       1.0  0.37875  0.68936  0.34213  1.0000
  C   C131      1.0  0.09161  0.79669  0.33917  1.0000
  C   C132      1.0  0.07425  0.76172  0.34302  1.0000
  O   O20       1.0  0.12553  0.81346  0.34169  1.0000
  C   C133      1.0  0.24560  0.70780  0.34445  1.0000
  C   C134      1.0  0.26246  0.68966  0.34295  1.0000
  C   C135      1.0  0.29744  0.70728  0.33919  1.0000
  H   H107      1.0  0.22103  0.69430  0.35944  1.0000
  O   O21       1.0  0.31422  0.69014  0.34184  1.0000
  C   C136      1.0  0.20689  0.79564  0.33974  1.0000
  C   C137      1.0  0.24187  0.81327  0.34321  1.0000
  C   C138      1.0  0.25874  0.79514  0.34449  1.0000
  O   O22       1.0  0.19011  0.81279  0.34251  1.0000
  H   H108      1.0  0.28333  0.80865  0.35930  1.0000
  C   C139      1.0  0.29588  0.53856  0.34439  1.0000
  C   C140      1.0  0.31402  0.57357  0.34306  1.0000
  C   C141      1.0  0.29640  0.59092  0.33938  1.0000
  H   H109      1.0  0.30938  0.52749  0.35936  1.0000
  O   O23       1.0  0.31354  0.62484  0.34205  1.0000
  C   C142      1.0  0.20802  0.91198  0.33926  1.0000
  C   C143      1.0  0.19039  0.92932  0.34299  1.0000
  C   C144      1.0  0.20853  0.96433  0.34449  1.0000
  O   O24       1.0  0.19089  0.87806  0.34188  1.0000
  H   H110      1.0  0.19501  0.97539  0.35941  1.0000
  C   C145      1.0  0.13921  0.74451  0.41809  1.0000
  C   C146      1.0  0.10894  0.74476  0.42267  1.0000
  C   C147      1.0  0.09259  0.74481  0.34199  1.0000
  H   H111      1.0  0.15263  0.74820  0.47561  1.0000
  C   C148      1.0  0.09629  0.74762  0.51197  1.0000
  H   H112      1.0  0.11028  0.74514  0.56721  1.0000
  H   H113      1.0  0.07042  0.72801  0.51921  1.0000
  H   H114      1.0  0.09773  0.77169  0.51859  1.0000
  C   C149      1.0  0.25923  0.89565  0.41784  1.0000
  C   C150      1.0  0.25891  0.86510  0.42267  1.0000
  C   C151      1.0  0.25874  0.84851  0.34226  1.0000
  H   H115      1.0  0.25562  0.90549  0.47526  1.0000
  C   C152      1.0  0.25603  0.84966  0.51207  1.0000
  H   H116      1.0  0.25854  0.86619  0.56719  1.0000
  H   H117      1.0  0.27560  0.84336  0.51943  1.0000
  H   H118      1.0  0.23194  0.82706  0.51879  1.0000
  C   C153      1.0  0.10804  0.86427  0.41767  1.0000
  C   C154      1.0  0.13858  0.89451  0.42251  1.0000
  C   C155      1.0  0.15515  0.91095  0.34211  1.0000
  H   H119      1.0  0.09822  0.85083  0.47512  1.0000
  C   C156      1.0  0.15404  0.90706  0.51190  1.0000
  H   H120      1.0  0.13753  0.89302  0.56703  1.0000
  H   H121      1.0  0.16033  0.93293  0.51932  1.0000
  H   H122      1.0  0.17665  0.90558  0.51854  1.0000
  C   C157      1.0  0.36498  0.75844  0.41766  1.0000
  C   C158      1.0  0.39521  0.75813  0.42259  1.0000
  C   C159      1.0  0.41168  0.75800  0.34223  1.0000
  H   H123      1.0  0.35152  0.75482  0.47507  1.0000
  C   C160      1.0  0.40774  0.75523  0.51202  1.0000
  H   H124      1.0  0.39370  0.75772  0.56710  1.0000
  H   H125      1.0  0.43361  0.77481  0.51946  1.0000
  H   H126      1.0  0.40625  0.73113  0.51870  1.0000
  C   C161      1.0  0.24519  0.60737  0.41795  1.0000
  C   C162      1.0  0.24545  0.63789  0.42267  1.0000
  C   C163      1.0  0.24558  0.65442  0.34219  1.0000
  H   H127      1.0  0.24884  0.59760  0.47544  1.0000
  C   C164      1.0  0.24832  0.65338  0.51200  1.0000
  H   H128      1.0  0.24585  0.63689  0.56719  1.0000
  H   H129      1.0  0.22873  0.65965  0.51930  1.0000
  H   H130      1.0  0.27241  0.67600  0.51863  1.0000
  C   C165      1.0  0.39622  0.63856  0.41795  1.0000
  C   C166      1.0  0.36569  0.60829  0.42267  1.0000
  C   C167      1.0  0.34928  0.59192  0.34203  1.0000
  H   H131      1.0  0.40599  0.65200  0.47542  1.0000
  C   C168      1.0  0.35021  0.59567  0.51200  1.0000
  H   H132      1.0  0.36668  0.60970  0.56719  1.0000
  H   H133      1.0  0.34396  0.56981  0.51931  1.0000
  H   H134      1.0  0.32756  0.59710  0.51863  1.0000
  C   C169      1.0  0.98416  0.24200  0.33043  1.0000
  C   C170      1.0  0.92997  0.18846  0.33229  1.0000
  C   C171      1.0  0.96490  0.20647  0.31952  1.0000
  C   C172      1.0  0.52012  0.26083  0.33039  1.0000
  C   C173      1.0  0.53937  0.29636  0.31944  1.0000
  C   C174      1.0  0.57430  0.31437  0.33207  1.0000
  O   O25       1.0  0.97799  0.18765  0.29052  1.0000
  O   O26       1.0  0.52627  0.31518  0.29047  1.0000
  H   H135      1.0  0.48258  0.19242  0.22634  1.0000
  H   H136      1.0  0.87152  0.18569  0.27931  1.0000
  H   H137      1.0  0.63275  0.31715  0.27885  1.0000
  C   C175      1.0  0.76157  0.24290  0.33027  1.0000
  C   C176      1.0  0.81511  0.24225  0.33193  1.0000
  C   C177      1.0  0.79710  0.25916  0.31917  1.0000
  C   C178      1.0  0.74276  0.26004  0.33034  1.0000
  C   C179      1.0  0.70722  0.24377  0.31938  1.0000
  C   C180      1.0  0.68922  0.26067  0.33238  1.0000
  O   O27       1.0  0.81591  0.29110  0.29023  1.0000
  O   O28       1.0  0.68839  0.21183  0.29050  1.0000
  H   H138      1.0  0.81113  0.29093  0.22607  1.0000
  H   H139      1.0  0.69315  0.21199  0.22632  1.0000
  H   H140      1.0  0.81791  0.18658  0.27903  1.0000
  H   H141      1.0  0.68638  0.31633  0.27972  1.0000
  C   C181      1.0  0.76077  0.01943  0.33036  1.0000
  C   C182      1.0  0.76142  0.07361  0.33211  1.0000
  C   C183      1.0  0.74450  0.03869  0.31942  1.0000
  C   C184      1.0  0.74363  0.48347  0.33037  1.0000
  C   C185      1.0  0.75991  0.46422  0.31940  1.0000
  C   C186      1.0  0.74299  0.42929  0.33202  1.0000
  O   O29       1.0  0.71255  0.02558  0.29063  1.0000
  O   O30       1.0  0.79183  0.47733  0.29035  1.0000
  H   H142      1.0  0.71268  0.52097  0.22644  1.0000
  H   H143      1.0  0.79164  0.98192  0.22618  1.0000
  H   H144      1.0  0.81707  0.13209  0.27923  1.0000
  H   H145      1.0  0.68731  0.37082  0.27906  1.0000
  C   C187      1.0  0.65409  0.24443  0.33581  1.0000
  C   C188      1.0  0.60627  0.24254  0.25844  1.0000
  C   C189      1.0  0.63663  0.24234  0.25675  1.0000
  H   H146      1.0  0.64816  0.24470  0.19648  1.0000
  C   C190      1.0  0.59206  0.24370  0.17001  1.0000
  H   H147      1.0  0.56780  0.24187  0.17525  1.0000
  H   H148      1.0  0.58891  0.22296  0.12863  1.0000
  H   H149      1.0  0.60891  0.26693  0.13594  1.0000
  C   C191      1.0  0.75927  0.41042  0.33528  1.0000
  C   C192      1.0  0.76098  0.36437  0.25847  1.0000
  C   C193      1.0  0.76121  0.39494  0.25636  1.0000
  H   H150      1.0  0.75880  0.40403  0.19603  1.0000
  C   C194      1.0  0.75977  0.34890  0.17015  1.0000
  H   H151      1.0  0.76162  0.32649  0.17552  1.0000
  H   H152      1.0  0.78048  0.36645  0.12860  1.0000
  H   H153      1.0  0.73652  0.34246  0.13614  1.0000
  C   C195      1.0  0.59321  0.34951  0.33515  1.0000
  C   C196      1.0  0.63927  0.39733  0.25836  1.0000
  C   C197      1.0  0.60870  0.36699  0.25631  1.0000
  H   H154      1.0  0.59959  0.35550  0.19597  1.0000
  C   C198      1.0  0.65470  0.41161  0.17002  1.0000
  H   H155      1.0  0.67711  0.43588  0.17538  1.0000
  H   H156      1.0  0.63713  0.41477  0.12856  1.0000
  H   H157      1.0  0.66113  0.39480  0.13593  1.0000
  C   C199      1.0  0.85025  0.25851  0.33509  1.0000
  C   C200      1.0  0.89809  0.26027  0.25843  1.0000
  C   C201      1.0  0.86775  0.26050  0.25629  1.0000
  H   H158      1.0  0.85628  0.25811  0.19592  1.0000
  C   C202      1.0  0.91239  0.25910  0.17013  1.0000
  H   H159      1.0  0.93665  0.26095  0.17554  1.0000
  H   H160      1.0  0.91556  0.27983  0.12864  1.0000
  H   H161      1.0  0.89558  0.23586  0.13604  1.0000
  C   C203      1.0  0.74518  0.09250  0.33560  1.0000
  C   C204      1.0  0.74334  0.13850  0.25852  1.0000
  C   C205      1.0  0.74316  0.10795  0.25665  1.0000
  H   H162      1.0  0.74553  0.09882  0.19634  1.0000
  C   C206      1.0  0.74449  0.15389  0.17011  1.0000
  H   H163      1.0  0.74260  0.17628  0.17536  1.0000
  H   H164      1.0  0.72377  0.13628  0.12868  1.0000
  H   H165      1.0  0.76774  0.16032  0.13605  1.0000
  C   C207      1.0  0.91107  0.15330  0.33547  1.0000
  C   C208      1.0  0.86513  0.10554  0.25831  1.0000
  C   C209      1.0  0.89568  0.13591  0.25643  1.0000
  H   H166      1.0  0.90482  0.14744  0.19616  1.0000
  C   C210      1.0  0.84969  0.09129  0.16995  1.0000
  H   H167      1.0  0.82728  0.06703  0.17529  1.0000
  H   H168      1.0  0.86727  0.08815  0.12848  1.0000
  H   H169      1.0  0.84327  0.10811  0.13590  1.0000
  C   C211      1.0  0.96503  0.25798  0.34458  1.0000
  C   C212      1.0  0.93003  0.24111  0.34320  1.0000
  C   C213      1.0  0.91267  0.20614  0.33953  1.0000
  H   H170      1.0  0.97611  0.28256  0.35946  1.0000
  O   O31       1.0  0.87875  0.18936  0.34213  1.0000
  C   C214      1.0  0.59161  0.29669  0.33917  1.0000
  C   C215      1.0  0.57425  0.26172  0.34302  1.0000
  C   C216      1.0  0.53924  0.24485  0.34445  1.0000
  O   O32       1.0  0.62553  0.31346  0.34169  1.0000
  H   H171      1.0  0.52817  0.22028  0.35945  1.0000
  C   C217      1.0  0.74560  0.20780  0.34445  1.0000
  C   C218      1.0  0.76246  0.18966  0.34295  1.0000
  C   C219      1.0  0.79744  0.20728  0.33919  1.0000
  H   H172      1.0  0.72103  0.19430  0.35944  1.0000
  O   O33       1.0  0.81422  0.19014  0.34184  1.0000
  C   C220      1.0  0.70689  0.29565  0.33974  1.0000
  C   C221      1.0  0.74187  0.31327  0.34321  1.0000
  C   C222      1.0  0.75874  0.29514  0.34449  1.0000
  O   O34       1.0  0.69011  0.31279  0.34251  1.0000
  H   H173      1.0  0.78333  0.30865  0.35930  1.0000
  C   C223      1.0  0.79588  0.03856  0.34439  1.0000
  C   C224      1.0  0.81402  0.07357  0.34306  1.0000
  C   C225      1.0  0.79640  0.09092  0.33938  1.0000
  H   H174      1.0  0.80938  0.02749  0.35936  1.0000
  O   O35       1.0  0.81354  0.12484  0.34205  1.0000
  C   C226      1.0  0.70802  0.41198  0.33926  1.0000
  C   C227      1.0  0.69039  0.42932  0.34299  1.0000
  C   C228      1.0  0.70853  0.46433  0.34449  1.0000
  O   O36       1.0  0.69089  0.37805  0.34188  1.0000
  H   H175      1.0  0.69501  0.47539  0.35941  1.0000
  C   C229      1.0  0.63921  0.24451  0.41809  1.0000
  C   C230      1.0  0.60894  0.24476  0.42267  1.0000
  C   C231      1.0  0.59259  0.24481  0.34199  1.0000
  H   H176      1.0  0.65263  0.24820  0.47561  1.0000
  C   C232      1.0  0.59629  0.24761  0.51197  1.0000
  H   H177      1.0  0.61028  0.24514  0.56721  1.0000
  H   H178      1.0  0.57042  0.22801  0.51921  1.0000
  H   H179      1.0  0.59773  0.27169  0.51859  1.0000
  C   C233      1.0  0.75923  0.39565  0.41784  1.0000
  C   C234      1.0  0.75891  0.36510  0.42267  1.0000
  C   C235      1.0  0.75874  0.34851  0.34226  1.0000
  H   H180      1.0  0.75562  0.40549  0.47526  1.0000
  C   C236      1.0  0.75603  0.34966  0.51207  1.0000
  H   H181      1.0  0.75854  0.36619  0.56719  1.0000
  H   H182      1.0  0.77560  0.34336  0.51943  1.0000
  H   H183      1.0  0.73194  0.32706  0.51879  1.0000
  C   C237      1.0  0.60803  0.36427  0.41767  1.0000
  C   C238      1.0  0.63858  0.39450  0.42251  1.0000
  C   C239      1.0  0.65515  0.41095  0.34211  1.0000
  H   H184      1.0  0.59822  0.35082  0.47512  1.0000
  C   C240      1.0  0.65404  0.40706  0.51190  1.0000
  H   H185      1.0  0.63753  0.39303  0.56703  1.0000
  H   H186      1.0  0.66033  0.43293  0.51932  1.0000
  H   H187      1.0  0.67665  0.40558  0.51854  1.0000
  C   C241      1.0  0.86498  0.25844  0.41766  1.0000
  C   C242      1.0  0.89522  0.25813  0.42259  1.0000
  C   C243      1.0  0.91168  0.25800  0.34223  1.0000
  H   H188      1.0  0.85152  0.25482  0.47507  1.0000
  C   C244      1.0  0.90774  0.25523  0.51202  1.0000
  H   H189      1.0  0.89370  0.25772  0.56710  1.0000
  H   H190      1.0  0.93361  0.27481  0.51946  1.0000
  H   H191      1.0  0.90625  0.23113  0.51870  1.0000
  C   C245      1.0  0.74519  0.10737  0.41795  1.0000
  C   C246      1.0  0.74545  0.13789  0.42267  1.0000
  C   C247      1.0  0.74558  0.15442  0.34219  1.0000
  H   H192      1.0  0.74884  0.09760  0.47544  1.0000
  C   C248      1.0  0.74832  0.15338  0.51200  1.0000
  H   H193      1.0  0.74585  0.13689  0.56719  1.0000
  H   H194      1.0  0.72873  0.15965  0.51930  1.0000
  H   H195      1.0  0.77241  0.17600  0.51863  1.0000
  C   C249      1.0  0.89622  0.13856  0.41795  1.0000
  C   C250      1.0  0.86569  0.10829  0.42267  1.0000
  C   C251      1.0  0.84928  0.09192  0.34203  1.0000
  H   H196      1.0  0.90599  0.15200  0.47542  1.0000
  C   C252      1.0  0.85021  0.09567  0.51200  1.0000
  H   H197      1.0  0.86668  0.10970  0.56719  1.0000
  H   H198      1.0  0.84396  0.06981  0.51931  1.0000
  H   H199      1.0  0.82756  0.09710  0.51863  1.0000
  C   C253      1.0  0.98416  0.74200  0.33043  1.0000
  C   C254      1.0  0.92997  0.68846  0.33229  1.0000
  C   C255      1.0  0.96489  0.70647  0.31952  1.0000
  C   C256      1.0  0.52012  0.76083  0.33039  1.0000
  C   C257      1.0  0.53937  0.79636  0.31944  1.0000
  C   C258      1.0  0.57430  0.81437  0.33207  1.0000
  O   O37       1.0  0.97800  0.68765  0.29052  1.0000
  O   O38       1.0  0.52627  0.81518  0.29047  1.0000
  H   H200      1.0  0.48258  0.69242  0.22634  1.0000
  H   H201      1.0  0.87152  0.68569  0.27931  1.0000
  H   H202      1.0  0.63275  0.81715  0.27885  1.0000
  C   C259      1.0  0.76157  0.74290  0.33027  1.0000
  C   C260      1.0  0.81511  0.74225  0.33193  1.0000
  C   C261      1.0  0.79710  0.75917  0.31917  1.0000
  C   C262      1.0  0.74276  0.76004  0.33034  1.0000
  C   C263      1.0  0.70723  0.74377  0.31938  1.0000
  C   C264      1.0  0.68922  0.76067  0.33238  1.0000
  O   O39       1.0  0.81592  0.79110  0.29023  1.0000
  O   O40       1.0  0.68839  0.71183  0.29050  1.0000
  H   H203      1.0  0.81113  0.79093  0.22607  1.0000
  H   H204      1.0  0.69315  0.71199  0.22632  1.0000
  H   H205      1.0  0.81791  0.68658  0.27903  1.0000
  H   H206      1.0  0.68638  0.81633  0.27972  1.0000
  C   C265      1.0  0.76077  0.51943  0.33036  1.0000
  C   C266      1.0  0.76142  0.57361  0.33211  1.0000
  C   C267      1.0  0.74450  0.53869  0.31942  1.0000
  C   C268      1.0  0.74363  0.98347  0.33037  1.0000
  C   C269      1.0  0.75991  0.96422  0.31940  1.0000
  C   C270      1.0  0.74300  0.92929  0.33202  1.0000
  O   O41       1.0  0.71255  0.52558  0.29063  1.0000
  O   O42       1.0  0.79183  0.97733  0.29035  1.0000
  H   H207      1.0  0.71267  0.02097  0.22644  1.0000
  H   H208      1.0  0.79164  0.48192  0.22618  1.0000
  H   H209      1.0  0.81707  0.63209  0.27923  1.0000
  H   H210      1.0  0.68731  0.87082  0.27906  1.0000
  C   C271      1.0  0.65409  0.74443  0.33581  1.0000
  C   C272      1.0  0.60627  0.74253  0.25844  1.0000
  C   C273      1.0  0.63663  0.74235  0.25675  1.0000
  H   H211      1.0  0.64816  0.74470  0.19648  1.0000
  C   C274      1.0  0.59206  0.74370  0.17001  1.0000
  H   H212      1.0  0.56780  0.74187  0.17525  1.0000
  H   H213      1.0  0.58891  0.72296  0.12863  1.0000
  H   H214      1.0  0.60891  0.76693  0.13594  1.0000
  C   C275      1.0  0.75927  0.91042  0.33528  1.0000
  C   C276      1.0  0.76098  0.86437  0.25847  1.0000
  C   C277      1.0  0.76121  0.89494  0.25636  1.0000
  H   H215      1.0  0.75880  0.90403  0.19603  1.0000
  C   C278      1.0  0.75977  0.84890  0.17015  1.0000
  H   H216      1.0  0.76162  0.82649  0.17552  1.0000
  H   H217      1.0  0.78048  0.86645  0.12860  1.0000
  H   H218      1.0  0.73652  0.84246  0.13614  1.0000
  C   C279      1.0  0.59321  0.84952  0.33515  1.0000
  C   C280      1.0  0.63927  0.89734  0.25836  1.0000
  C   C281      1.0  0.60870  0.86699  0.25631  1.0000
  H   H219      1.0  0.59959  0.85550  0.19597  1.0000
  C   C282      1.0  0.65470  0.91161  0.17002  1.0000
  H   H220      1.0  0.67711  0.93588  0.17538  1.0000
  H   H221      1.0  0.63713  0.91477  0.12856  1.0000
  H   H222      1.0  0.66113  0.89480  0.13593  1.0000
  C   C283      1.0  0.85025  0.75851  0.33509  1.0000
  C   C284      1.0  0.89809  0.76027  0.25843  1.0000
  C   C285      1.0  0.86775  0.76050  0.25629  1.0000
  H   H223      1.0  0.85628  0.75811  0.19592  1.0000
  C   C286      1.0  0.91238  0.75910  0.17013  1.0000
  H   H224      1.0  0.93665  0.76095  0.17554  1.0000
  H   H225      1.0  0.91556  0.77983  0.12864  1.0000
  H   H226      1.0  0.89558  0.73586  0.13604  1.0000
  C   C287      1.0  0.74518  0.59250  0.33560  1.0000
  C   C288      1.0  0.74334  0.63850  0.25852  1.0000
  C   C289      1.0  0.74316  0.60795  0.25665  1.0000
  H   H227      1.0  0.74553  0.59882  0.19634  1.0000
  C   C290      1.0  0.74449  0.65389  0.17011  1.0000
  H   H228      1.0  0.74260  0.67628  0.17536  1.0000
  H   H229      1.0  0.72377  0.63628  0.12868  1.0000
  H   H230      1.0  0.76774  0.66033  0.13605  1.0000
  C   C291      1.0  0.91107  0.65331  0.33547  1.0000
  C   C292      1.0  0.86512  0.60554  0.25831  1.0000
  C   C293      1.0  0.89568  0.63591  0.25643  1.0000
  H   H231      1.0  0.90482  0.64744  0.19616  1.0000
  C   C294      1.0  0.84969  0.59129  0.16995  1.0000
  H   H232      1.0  0.82729  0.56703  0.17529  1.0000
  H   H233      1.0  0.86727  0.58815  0.12848  1.0000
  H   H234      1.0  0.84327  0.60811  0.13590  1.0000
  C   C295      1.0  0.96503  0.75798  0.34458  1.0000
  C   C296      1.0  0.93003  0.74111  0.34320  1.0000
  C   C297      1.0  0.91267  0.70614  0.33953  1.0000
  H   H235      1.0  0.97611  0.78256  0.35946  1.0000
  O   O43       1.0  0.87875  0.68936  0.34213  1.0000
  C   C298      1.0  0.59161  0.79669  0.33917  1.0000
  C   C299      1.0  0.57425  0.76172  0.34302  1.0000
  C   C300      1.0  0.53924  0.74485  0.34445  1.0000
  O   O44       1.0  0.62553  0.81346  0.34169  1.0000
  H   H236      1.0  0.52817  0.72028  0.35945  1.0000
  C   C301      1.0  0.74560  0.70780  0.34445  1.0000
  C   C302      1.0  0.76246  0.68966  0.34295  1.0000
  C   C303      1.0  0.79744  0.70728  0.33919  1.0000
  H   H237      1.0  0.72103  0.69430  0.35944  1.0000
  O   O45       1.0  0.81422  0.69014  0.34184  1.0000
  C   C304      1.0  0.70689  0.79564  0.33974  1.0000
  C   C305      1.0  0.74187  0.81327  0.34321  1.0000
  C   C306      1.0  0.75874  0.79514  0.34449  1.0000
  O   O46       1.0  0.69011  0.81279  0.34251  1.0000
  H   H238      1.0  0.78333  0.80865  0.35930  1.0000
  C   C307      1.0  0.79588  0.53856  0.34439  1.0000
  C   C308      1.0  0.81402  0.57357  0.34306  1.0000
  C   C309      1.0  0.79640  0.59092  0.33938  1.0000
  H   H239      1.0  0.80938  0.52749  0.35936  1.0000
  O   O47       1.0  0.81354  0.62484  0.34205  1.0000
  C   C310      1.0  0.70802  0.91198  0.33926  1.0000
  C   C311      1.0  0.69039  0.92932  0.34299  1.0000
  C   C312      1.0  0.70853  0.96433  0.34449  1.0000
  O   O48       1.0  0.69089  0.87806  0.34188  1.0000
  H   H240      1.0  0.69501  0.97539  0.35941  1.0000
  C   C313      1.0  0.63921  0.74451  0.41809  1.0000
  C   C314      1.0  0.60894  0.74476  0.42267  1.0000
  C   C315      1.0  0.59259  0.74481  0.34199  1.0000
  H   H241      1.0  0.65263  0.74820  0.47561  1.0000
  C   C316      1.0  0.59629  0.74762  0.51197  1.0000
  H   H242      1.0  0.61028  0.74514  0.56721  1.0000
  H   H243      1.0  0.57042  0.72801  0.51921  1.0000
  H   H244      1.0  0.59773  0.77169  0.51859  1.0000
  C   C317      1.0  0.75923  0.89565  0.41784  1.0000
  C   C318      1.0  0.75891  0.86510  0.42267  1.0000
  C   C319      1.0  0.75874  0.84851  0.34226  1.0000
  H   H245      1.0  0.75562  0.90549  0.47526  1.0000
  C   C320      1.0  0.75603  0.84966  0.51207  1.0000
  H   H246      1.0  0.75854  0.86619  0.56719  1.0000
  H   H247      1.0  0.77560  0.84336  0.51943  1.0000
  H   H248      1.0  0.73194  0.82706  0.51879  1.0000
  C   C321      1.0  0.60804  0.86427  0.41767  1.0000
  C   C322      1.0  0.63858  0.89451  0.42251  1.0000
  C   C323      1.0  0.65515  0.91095  0.34211  1.0000
  H   H249      1.0  0.59822  0.85083  0.47512  1.0000
  C   C324      1.0  0.65404  0.90706  0.51190  1.0000
  H   H250      1.0  0.63753  0.89302  0.56703  1.0000
  H   H251      1.0  0.66033  0.93293  0.51932  1.0000
  H   H252      1.0  0.67665  0.90558  0.51854  1.0000
  C   C325      1.0  0.86498  0.75844  0.41766  1.0000
  C   C326      1.0  0.89521  0.75813  0.42259  1.0000
  C   C327      1.0  0.91168  0.75800  0.34223  1.0000
  H   H253      1.0  0.85152  0.75482  0.47507  1.0000
  C   C328      1.0  0.90774  0.75523  0.51202  1.0000
  H   H254      1.0  0.89370  0.75772  0.56710  1.0000
  H   H255      1.0  0.93361  0.77481  0.51946  1.0000
  H   H256      1.0  0.90625  0.73113  0.51870  1.0000
  C   C329      1.0  0.74519  0.60737  0.41795  1.0000
  C   C330      1.0  0.74545  0.63789  0.42267  1.0000
  C   C331      1.0  0.74559  0.65442  0.34219  1.0000
  H   H257      1.0  0.74884  0.59760  0.47544  1.0000
  C   C332      1.0  0.74833  0.65338  0.51200  1.0000
  H   H258      1.0  0.74585  0.63689  0.56719  1.0000
  H   H259      1.0  0.72873  0.65965  0.51930  1.0000
  H   H260      1.0  0.77241  0.67600  0.51863  1.0000
  C   C333      1.0  0.89622  0.63856  0.41795  1.0000
  C   C334      1.0  0.86569  0.60829  0.42267  1.0000
  C   C335      1.0  0.84928  0.59192  0.34203  1.0000
  H   H261      1.0  0.90599  0.65200  0.47542  1.0000
  C   C336      1.0  0.85021  0.59567  0.51200  1.0000
  H   H262      1.0  0.86668  0.60970  0.56719  1.0000
  H   H263      1.0  0.84396  0.56981  0.51931  1.0000
  H   H264      1.0  0.82756  0.59710  0.51863  1.0000
