data_image0
_chemical_formula_structural       C4NH2NC2NC2HNHCHC2NC2HNHCHC2H2NC2HC6H3CHC2HC6H3CHC4NH2NC4NC4NH4N2C4NC4NH4N2C2NC2HNHCHC2NC2HNHCHC2NC2HNHCHC2NC2HNHCHC2H2NC2HC2H3N2C2HC2H3N2C2HC6H3CHC2HC6H3CHC2HC6H3CHC2HC6H3CH
_chemical_formula_sum              "C120 N30 H72"
_cell_length_a       38.5285
_cell_length_b       38.5285
_cell_length_c       14.9541
_cell_angle_alpha    90
_cell_angle_beta     90
_cell_angle_gamma    120

_space_group_name_H-M_alt    "P 1"
_space_group_IT_number       1

loop_
  _space_group_symop_operation_xyz
  'x, y, z'

loop_
  _atom_site_type_symbol
  _atom_site_label
  _atom_site_symmetry_multiplicity
  _atom_site_fract_x
  _atom_site_fract_y
  _atom_site_fract_z
  _atom_site_occupancy
  C   C1        1.0  0.02426  0.51271  0.33615  1.0000
  C   C2        1.0  0.04694  0.55520  0.32765  1.0000
  C   C3        1.0  0.08930  0.57732  0.33154  1.0000
  C   C4        1.0  0.11137  0.55697  0.33897  1.0000
  N   N1        1.0  0.15240  0.57778  0.34058  1.0000
  H   H1        1.0  0.16775  0.60682  0.33627  1.0000
  H   H2        1.0  0.03286  0.57124  0.31747  1.0000
  N   N2        1.0  0.10991  0.61721  0.33039  1.0000
  C   C5        1.0  0.13799  0.45524  0.33188  1.0000
  C   C6        1.0  0.15472  0.44789  0.25515  1.0000
  N   N3        1.0  0.18896  0.44616  0.26156  1.0000
  C   C7        1.0  0.20862  0.45046  0.33992  1.0000
  C   C8        1.0  0.29739  0.44654  0.26336  1.0000
  H   H3        1.0  0.14241  0.44544  0.19325  1.0000
  N   N4        1.0  0.26175  0.44569  0.26564  1.0000
  H   H4        1.0  0.30842  0.44410  0.20294  1.0000
  C   C9        1.0  0.10600  0.46187  0.32376  1.0000
  H   H5        1.0  0.08256  0.44386  0.28604  1.0000
  C   C10       1.0  0.32031  0.86583  0.33192  1.0000
  C   C11       1.0  0.29628  0.84904  0.25512  1.0000
  N   N5        1.0  0.26032  0.81480  0.26150  1.0000
  C   C12       1.0  0.24490  0.79517  0.33989  1.0000
  C   C13       1.0  0.15228  0.70633  0.26332  1.0000
  H   H6        1.0  0.30619  0.86133  0.19321  1.0000
  N   N6        1.0  0.18706  0.74198  0.26558  1.0000
  H   H7        1.0  0.13885  0.69525  0.20289  1.0000
  C   C14       1.0  0.35894  0.89785  0.32389  1.0000
  H   H8        1.0  0.36430  0.92114  0.28574  1.0000
  C   C15       1.0  0.08988  0.51451  0.34447  1.0000
  C   C16       1.0  0.04749  0.49352  0.34562  1.0000
  H   H9        1.0  0.03389  0.46340  0.35574  1.0000
  H   H10       1.0  0.16808  0.56446  0.34556  1.0000
  N   N7        1.0  0.11091  0.49574  0.35014  1.0000
  C   C17       1.0  0.19273  0.45695  0.41993  1.0000
  C   C18       1.0  0.15737  0.45937  0.41479  1.0000
  H   H11       1.0  0.14622  0.46521  0.47148  1.0000
  C   C19       1.0  0.24506  0.44995  0.34206  1.0000
  C   C20       1.0  0.31927  0.45226  0.34296  1.0000
  C   C21       1.0  0.30279  0.45650  0.42387  1.0000
  C   C22       1.0  0.26565  0.45556  0.42443  1.0000
  C   C23       1.0  0.24922  0.46117  0.50381  1.0000
  C   C24       1.0  0.21312  0.46194  0.50155  1.0000
  H   H12       1.0  0.26377  0.46550  0.56359  1.0000
  H   H13       1.0  0.20222  0.46683  0.55972  1.0000
  H   H14       1.0  0.31855  0.46164  0.48230  1.0000
  C   C25       1.0  0.35738  0.45759  0.34116  1.0000
  H   H15       1.0  0.36184  0.43504  0.35633  1.0000
  C   C26       1.0  0.26723  0.81111  0.41993  1.0000
  C   C27       1.0  0.30500  0.84648  0.41483  1.0000
  H   H16       1.0  0.32195  0.85767  0.47156  1.0000
  C   C28       1.0  0.20796  0.75873  0.34202  1.0000
  C   C29       1.0  0.13605  0.68452  0.34298  1.0000
  C   C30       1.0  0.15671  0.70107  0.42389  1.0000
  C   C31       1.0  0.19293  0.73820  0.42443  1.0000
  C   C32       1.0  0.21492  0.75468  0.50384  1.0000
  C   C33       1.0  0.25179  0.79077  0.50158  1.0000
  H   H17       1.0  0.20466  0.74016  0.56365  1.0000
  H   H18       1.0  0.26754  0.80171  0.55978  1.0000
  H   H19       1.0  0.14606  0.68536  0.48237  1.0000
  C   C34       1.0  0.10327  0.64640  0.34129  1.0000
  H   H20       1.0  0.07641  0.64188  0.35820  1.0000
  C   C35       1.0  0.98033  0.49044  0.33626  1.0000
  C   C36       1.0  0.89323  0.44617  0.33957  1.0000
  C   C37       1.0  0.91529  0.42581  0.33213  1.0000
  C   C38       1.0  0.95765  0.44793  0.32799  1.0000
  N   N8        1.0  0.85220  0.42536  0.34137  1.0000
  H   H21       1.0  0.83685  0.39631  0.33719  1.0000
  H   H22       1.0  0.97172  0.43188  0.31784  1.0000
  N   N9        1.0  0.89469  0.38592  0.33129  1.0000
  C   C39       1.0  0.51341  0.49068  0.33632  1.0000
  C   C40       1.0  0.55769  0.44786  0.33940  1.0000
  C   C41       1.0  0.57803  0.49027  0.33198  1.0000
  C   C42       1.0  0.55591  0.51051  0.32796  1.0000
  N   N10       1.0  0.57851  0.42765  0.34111  1.0000
  C   C43       1.0  0.49113  0.51234  0.33634  1.0000
  C   C44       1.0  0.44863  0.49252  0.32804  1.0000
  C   C45       1.0  0.42651  0.51275  0.33208  1.0000
  C   C46       1.0  0.44686  0.55517  0.33949  1.0000
  N   N11       1.0  0.42604  0.57539  0.34122  1.0000
  H   H23       1.0  0.39700  0.56169  0.33701  1.0000
  H   H24       1.0  0.60755  0.44135  0.33689  1.0000
  H   H25       1.0  0.57195  0.54062  0.31781  1.0000
  H   H26       1.0  0.43258  0.46239  0.31792  1.0000
  N   N12       1.0  0.38662  0.49346  0.33124  1.0000
  N   N13       1.0  0.61792  0.50957  0.33106  1.0000
  C   C47       1.0  0.51318  0.02349  0.33631  1.0000
  C   C48       1.0  0.55606  0.11058  0.33948  1.0000
  C   C49       1.0  0.51365  0.08855  0.33184  1.0000
  C   C50       1.0  0.49339  0.04619  0.32774  1.0000
  N   N14       1.0  0.57631  0.15161  0.34121  1.0000
  C   C51       1.0  0.49149  0.97956  0.33628  1.0000
  C   C52       1.0  0.51130  0.95687  0.32784  1.0000
  C   C53       1.0  0.49104  0.91451  0.33189  1.0000
  C   C54       1.0  0.44864  0.89247  0.33937  1.0000
  N   N15       1.0  0.42840  0.85143  0.34109  1.0000
  H   H27       1.0  0.44209  0.83608  0.33687  1.0000
  H   H28       1.0  0.56264  0.16698  0.33685  1.0000
  H   H29       1.0  0.46328  0.03213  0.31741  1.0000
  H   H30       1.0  0.54141  0.97094  0.31758  1.0000
  N   N16       1.0  0.51032  0.89390  0.33089  1.0000
  N   N17       1.0  0.49439  0.10918  0.33078  1.0000
  C   C55       1.0  0.54855  0.68351  0.33190  1.0000
  C   C56       1.0  0.55578  0.70753  0.25510  1.0000
  N   N18       1.0  0.55751  0.74349  0.26149  1.0000
  C   C57       1.0  0.55332  0.75892  0.33988  1.0000
  C   C58       1.0  0.55711  0.85154  0.26329  1.0000
  H   H31       1.0  0.55814  0.69762  0.19319  1.0000
  N   N19       1.0  0.55797  0.81675  0.26556  1.0000
  H   H32       1.0  0.55946  0.86496  0.20284  1.0000
  C   C59       1.0  0.54193  0.64488  0.32387  1.0000
  H   H33       1.0  0.55987  0.63952  0.28574  1.0000
  C   C60       1.0  0.86657  0.54784  0.33192  1.0000
  C   C61       1.0  0.84978  0.55508  0.25514  1.0000
  N   N20       1.0  0.81554  0.55680  0.26152  1.0000
  C   C62       1.0  0.79592  0.55260  0.33990  1.0000
  C   C63       1.0  0.70709  0.55639  0.26331  1.0000
  H   H34       1.0  0.86206  0.55746  0.19322  1.0000
  N   N21       1.0  0.74274  0.55725  0.26559  1.0000
  H   H35       1.0  0.69602  0.55876  0.20287  1.0000
  C   C64       1.0  0.89859  0.54124  0.32389  1.0000
  H   H36       1.0  0.92188  0.55917  0.28574  1.0000
  C   C65       1.0  0.45604  0.31952  0.33192  1.0000
  C   C66       1.0  0.44882  0.29550  0.25512  1.0000
  N   N22       1.0  0.44712  0.25955  0.26149  1.0000
  C   C67       1.0  0.45133  0.24413  0.33988  1.0000
  C   C68       1.0  0.44760  0.15154  0.26326  1.0000
  H   H37       1.0  0.44644  0.30541  0.19321  1.0000
  N   N23       1.0  0.44673  0.18632  0.26554  1.0000
  H   H38       1.0  0.44526  0.13812  0.20282  1.0000
  C   C69       1.0  0.46262  0.35813  0.32390  1.0000
  H   H39       1.0  0.44466  0.36348  0.28580  1.0000
  C   C70       1.0  0.68431  0.13722  0.33239  1.0000
  C   C71       1.0  0.70832  0.15399  0.25555  1.0000
  N   N24       1.0  0.74427  0.18824  0.26185  1.0000
  C   C72       1.0  0.75970  0.20790  0.34019  1.0000
  C   C73       1.0  0.85230  0.29669  0.26339  1.0000
  H   H40       1.0  0.69840  0.14167  0.19367  1.0000
  N   N25       1.0  0.81751  0.26105  0.26575  1.0000
  H   H41       1.0  0.86572  0.30773  0.20292  1.0000
  C   C74       1.0  0.64572  0.10513  0.32447  1.0000
  H   H42       1.0  0.64032  0.08197  0.28580  1.0000
  C   C75       1.0  0.95711  0.50963  0.34576  1.0000
  C   C76       1.0  0.91472  0.48864  0.34480  1.0000
  H   H43       1.0  0.97072  0.53976  0.35567  1.0000
  H   H44       1.0  0.83653  0.43869  0.34631  1.0000
  N   N26       1.0  0.89370  0.50741  0.35052  1.0000
  C   C77       1.0  0.49422  0.44826  0.34576  1.0000
  C   C78       1.0  0.51521  0.42686  0.34472  1.0000
  H   H45       1.0  0.46410  0.43173  0.35578  1.0000
  C   C79       1.0  0.48933  0.57616  0.34476  1.0000
  C   C80       1.0  0.51032  0.55476  0.34577  1.0000
  H   H46       1.0  0.54045  0.57128  0.35577  1.0000
  H   H47       1.0  0.43937  0.60439  0.34613  1.0000
  H   H48       1.0  0.56518  0.39864  0.34605  1.0000
  N   N27       1.0  0.50810  0.61595  0.35049  1.0000
  N   N28       1.0  0.49646  0.38708  0.35046  1.0000
  C   C81       1.0  0.55558  0.04668  0.34605  1.0000
  C   C82       1.0  0.57701  0.08907  0.34505  1.0000
  H   H49       1.0  0.57206  0.03305  0.35629  1.0000
  C   C83       1.0  0.42766  0.91396  0.34476  1.0000
  C   C84       1.0  0.44908  0.95636  0.34582  1.0000
  H   H50       1.0  0.43257  0.96998  0.35584  1.0000
  H   H51       1.0  0.39940  0.83577  0.34611  1.0000
  H   H52       1.0  0.60531  0.16727  0.34632  1.0000
  N   N29       1.0  0.38787  0.89295  0.35050  1.0000
  N   N30       1.0  0.61680  0.11005  0.35108  1.0000
  C   C85       1.0  0.54695  0.73660  0.41993  1.0000
  C   C86       1.0  0.54454  0.69882  0.41483  1.0000
  H   H53       1.0  0.53879  0.68188  0.47157  1.0000
  C   C87       1.0  0.55383  0.79586  0.34201  1.0000
  C   C88       1.0  0.55153  0.86777  0.34293  1.0000
  C   C89       1.0  0.54741  0.84711  0.42386  1.0000
  C   C90       1.0  0.54835  0.81091  0.42442  1.0000
  C   C91       1.0  0.54285  0.78893  0.50384  1.0000
  C   C92       1.0  0.54207  0.75206  0.50159  1.0000
  H   H54       1.0  0.53860  0.79919  0.56364  1.0000
  H   H55       1.0  0.53727  0.73631  0.55979  1.0000
  H   H56       1.0  0.54235  0.85777  0.48233  1.0000
  C   C93       1.0  0.54618  0.90054  0.34120  1.0000
  H   H57       1.0  0.56864  0.92750  0.35704  1.0000
  C   C94       1.0  0.81186  0.54621  0.41995  1.0000
  C   C95       1.0  0.84723  0.54381  0.41485  1.0000
  H   H58       1.0  0.85842  0.53805  0.47158  1.0000
  C   C96       1.0  0.75948  0.55309  0.34203  1.0000
  C   C97       1.0  0.68526  0.55078  0.34295  1.0000
  C   C98       1.0  0.70179  0.54664  0.42387  1.0000
  C   C99       1.0  0.73894  0.54759  0.42443  1.0000
  C   C100      1.0  0.75542  0.54208  0.50385  1.0000
  C   C101      1.0  0.79152  0.54131  0.50160  1.0000
  H   H59       1.0  0.74090  0.53782  0.56365  1.0000
  H   H60       1.0  0.80246  0.53650  0.55980  1.0000
  H   H61       1.0  0.68607  0.54157  0.48234  1.0000
  C   C102      1.0  0.64714  0.54543  0.34119  1.0000
  H   H62       1.0  0.64266  0.56793  0.35672  1.0000
  C   C103      1.0  0.45769  0.26644  0.41993  1.0000
  C   C104      1.0  0.46007  0.30421  0.41484  1.0000
  H   H63       1.0  0.46581  0.32115  0.47158  1.0000
  C   C105      1.0  0.45086  0.20721  0.34199  1.0000
  C   C106      1.0  0.45320  0.13532  0.34291  1.0000
  C   C107      1.0  0.45731  0.15597  0.42384  1.0000
  C   C108      1.0  0.45635  0.19217  0.42440  1.0000
  C   C109      1.0  0.46184  0.21414  0.50382  1.0000
  C   C110      1.0  0.46258  0.25100  0.50158  1.0000
  H   H64       1.0  0.46609  0.20388  0.56363  1.0000
  H   H65       1.0  0.46738  0.26675  0.55979  1.0000
  H   H66       1.0  0.46236  0.14531  0.48231  1.0000
  C   C111      1.0  0.45854  0.10254  0.34119  1.0000
  H   H67       1.0  0.43610  0.07560  0.35725  1.0000
  C   C112      1.0  0.73741  0.19199  0.42028  1.0000
  C   C113      1.0  0.69964  0.15660  0.41527  1.0000
  H   H68       1.0  0.68273  0.14541  0.47203  1.0000
  C   C114      1.0  0.79663  0.24435  0.34223  1.0000
  C   C115      1.0  0.86853  0.31857  0.34297  1.0000
  C   C116      1.0  0.84788  0.30208  0.42393  1.0000
  C   C117      1.0  0.81168  0.26493  0.42459  1.0000
  C   C118      1.0  0.78972  0.24848  0.50404  1.0000
  C   C119      1.0  0.75287  0.21236  0.50188  1.0000
  H   H69       1.0  0.79999  0.26302  0.56381  1.0000
  H   H70       1.0  0.73713  0.20144  0.56011  1.0000
  H   H71       1.0  0.85855  0.31783  0.48236  1.0000
  C   C120      1.0  0.90132  0.35668  0.34111  1.0000
  H   H72       1.0  0.92833  0.36113  0.35615  1.0000
