data_image0
_chemical_formula_structural       C2OCHC2OCH3C4OHC4OHNCHC2HCN2CHC2HCNH2C3OH4C6O2H4C6O2H4CHNCHN2CHNCHNCHC3HO2C3HOC3OHC3HOC3OHCNC2NC2OH3C3OH3C2NC2OH3C2NC2OH3C2NC2OH3C3OH4C6O2H4C6O2H4CHNCHN2CHNCHNCHC3HO2C3HOC3OHC3HOC3OHCNC2NC2OH3C3OH3C2NC2OH3C2NC2OH3C2NC2OH3C6O2H3C6O2H4C6O2H4NCHNCHNCHNCHNCHNCHC3HOC3OHC3HOC3OHC3HOC3OHC2NC2OH3C2NC2OH3C2NC2OH3C2NC2OH3C2NC2OH3C2NC2OH3C6O2H3C6O2H4C6O2H4NCHNCHNCHNCHNCHNCHC3HOC3OHC3HOC3OHC3HOC3OHC2NC2OH3C2NC2OH3C2NC2OH3C2NC2OH3C2NC2OH3C2NC2OH3
_chemical_formula_sum              "C264 O72 H168 N48"
_cell_length_a       46.1035
_cell_length_b       46.1036
_cell_length_c       14.9212
_cell_angle_alpha    90
_cell_angle_beta     90
_cell_angle_gamma    120

_space_group_name_H-M_alt    "P 1"
_space_group_IT_number       1

loop_
  _space_group_symop_operation_xyz
  'x, y, z'

loop_
  _atom_site_type_symbol
  _atom_site_label
  _atom_site_symmetry_multiplicity
  _atom_site_fract_x
  _atom_site_fract_y
  _atom_site_fract_z
  _atom_site_occupancy
  C   C1        1.0  0.02215  0.26180  0.31937  1.0000
  C   C2        1.0  0.04227  0.29768  0.31079  1.0000
  O   O1        1.0  0.03004  0.31716  0.27892  1.0000
  C   C3        1.0  0.04066  0.24501  0.33617  1.0000
  H   H1        1.0  0.02879  0.22005  0.34896  1.0000
  C   C4        1.0  0.02215  0.76179  0.31937  1.0000
  C   C5        1.0  0.04227  0.79768  0.31079  1.0000
  O   O2        1.0  0.03004  0.81716  0.27892  1.0000
  C   C6        1.0  0.04066  0.74500  0.33617  1.0000
  H   H2        1.0  0.02879  0.72005  0.34896  1.0000
  H   H3        1.0  0.02577  0.31208  0.21465  1.0000
  H   H4        1.0  0.02578  0.81208  0.21465  1.0000
  C   C7        1.0  0.07679  0.31542  0.33369  1.0000
  C   C8        1.0  0.09328  0.29700  0.34889  1.0000
  C   C9        1.0  0.07572  0.26168  0.34718  1.0000
  C   C10       1.0  0.09365  0.24435  0.35728  1.0000
  O   O3        1.0  0.07397  0.25002  0.54437  1.0000
  H   H5        1.0  0.07247  0.26990  0.52818  1.0000
  C   C11       1.0  0.07679  0.81542  0.33369  1.0000
  C   C12       1.0  0.09328  0.79700  0.34889  1.0000
  C   C13       1.0  0.07572  0.76168  0.34718  1.0000
  C   C14       1.0  0.09365  0.74435  0.35728  1.0000
  O   O4        1.0  0.07397  0.75002  0.54437  1.0000
  H   H6        1.0  0.07248  0.76990  0.52818  1.0000
  N   N1        1.0  0.10586  0.24015  0.27795  1.0000
  C   C15       1.0  0.10958  0.37214  0.26843  1.0000
  H   H7        1.0  0.10119  0.36367  0.20511  1.0000
  C   C16       1.0  0.11397  0.24963  0.43405  1.0000
  C   C17       1.0  0.10732  0.25672  0.52661  1.0000
  H   H8        1.0  0.11116  0.24029  0.57168  1.0000
  C   C18       1.0  0.09595  0.35069  0.34299  1.0000
  N   N2        1.0  0.11293  0.36239  0.42142  1.0000
  N   N3        1.0  0.10586  0.74015  0.27795  1.0000
  C   C19       1.0  0.10957  0.87214  0.26843  1.0000
  H   H9        1.0  0.10119  0.86367  0.20511  1.0000
  C   C20       1.0  0.11397  0.74963  0.43405  1.0000
  C   C21       1.0  0.10732  0.75672  0.52661  1.0000
  H   H10       1.0  0.11116  0.74029  0.57168  1.0000
  C   C22       1.0  0.09595  0.85069  0.34299  1.0000
  N   N4        1.0  0.11293  0.86239  0.42142  1.0000
  H   H11       1.0  0.12570  0.28253  0.54462  1.0000
  H   H12       1.0  0.12570  0.78254  0.54462  1.0000
  C   C23       1.0  0.48584  0.24352  0.31932  1.0000
  C   C24       1.0  0.43117  0.18989  0.33308  1.0000
  C   C25       1.0  0.46572  0.20764  0.31057  1.0000
  O   O5        1.0  0.47797  0.18816  0.27882  1.0000
  H   H13       1.0  0.98229  0.19326  0.21458  1.0000
  H   H14       1.0  0.52578  0.31208  0.21465  1.0000
  H   H15       1.0  0.37244  0.18884  0.29266  1.0000
  H   H16       1.0  0.13558  0.31660  0.29404  1.0000
  C   C26       1.0  0.26308  0.24360  0.31989  1.0000
  C   C27       1.0  0.31668  0.24259  0.33489  1.0000
  C   C28       1.0  0.29896  0.25933  0.31133  1.0000
  C   C29       1.0  0.24481  0.26165  0.31955  1.0000
  C   C30       1.0  0.20893  0.24588  0.31074  1.0000
  C   C31       1.0  0.19119  0.26268  0.33338  1.0000
  O   O6        1.0  0.31846  0.29099  0.27924  1.0000
  O   O7        1.0  0.18946  0.21417  0.27893  1.0000
  H   H17       1.0  0.31334  0.29013  0.21500  1.0000
  H   H18       1.0  0.19461  0.21495  0.21473  1.0000
  H   H19       1.0  0.31788  0.18497  0.29601  1.0000
  H   H20       1.0  0.19010  0.32032  0.29304  1.0000
  C   C32       1.0  0.26296  0.02083  0.31936  1.0000
  C   C33       1.0  0.26395  0.07546  0.33341  1.0000
  C   C34       1.0  0.24716  0.04093  0.31077  1.0000
  C   C35       1.0  0.24493  0.48452  0.31964  1.0000
  C   C36       1.0  0.26068  0.46439  0.31093  1.0000
  C   C37       1.0  0.24394  0.42990  0.33413  1.0000
  O   O8        1.0  0.21543  0.02867  0.27909  1.0000
  O   O9        1.0  0.29235  0.47660  0.27887  1.0000
  H   H21       1.0  0.21619  0.52434  0.21484  1.0000
  H   H22       1.0  0.29149  0.98085  0.21462  1.0000
  H   H23       1.0  0.32156  0.13426  0.29325  1.0000
  H   H24       1.0  0.18630  0.37108  0.29473  1.0000
  C   C38       1.0  0.13447  0.23869  0.26804  1.0000
  H   H25       1.0  0.14294  0.23868  0.20478  1.0000
  N   N5        1.0  0.26661  0.36730  0.27760  1.0000
  C   C39       1.0  0.26793  0.39731  0.26819  1.0000
  H   H26       1.0  0.26837  0.40617  0.20512  1.0000
  N   N6        1.0  0.13963  0.40075  0.27858  1.0000
  N   N7        1.0  0.40192  0.26535  0.27800  1.0000
  C   C40       1.0  0.37320  0.26665  0.26892  1.0000
  H   H27       1.0  0.36474  0.26713  0.20594  1.0000
  N   N8        1.0  0.24152  0.13837  0.27880  1.0000
  C   C41       1.0  0.24006  0.10833  0.26842  1.0000
  H   H28       1.0  0.24018  0.10000  0.20504  1.0000
  N   N9        1.0  0.36840  0.10463  0.27702  1.0000
  C   C42       1.0  0.39840  0.13332  0.26734  1.0000
  H   H29       1.0  0.40716  0.14172  0.20420  1.0000
  C   C43       1.0  0.46733  0.26030  0.33621  1.0000
  C   C44       1.0  0.43226  0.24364  0.34685  1.0000
  C   C45       1.0  0.41466  0.20832  0.34800  1.0000
  H   H30       1.0  0.47920  0.28526  0.34899  1.0000
  O   O10       1.0  0.38057  0.19173  0.35474  1.0000
  O   O11       1.0  0.12735  0.31359  0.35604  1.0000
  C   C46       1.0  0.24626  0.20832  0.33693  1.0000
  C   C47       1.0  0.26291  0.18992  0.34830  1.0000
  C   C48       1.0  0.29822  0.20769  0.35046  1.0000
  H   H31       1.0  0.22128  0.19523  0.34925  1.0000
  O   O12       1.0  0.31478  0.19018  0.35795  1.0000
  C   C49       1.0  0.20961  0.29761  0.34836  1.0000
  C   C50       1.0  0.24493  0.31535  0.34694  1.0000
  C   C51       1.0  0.26160  0.29695  0.33623  1.0000
  O   O13       1.0  0.19301  0.31510  0.35513  1.0000
  H   H32       1.0  0.28658  0.31006  0.34878  1.0000
  C   C52       1.0  0.29828  0.03937  0.33582  1.0000
  C   C53       1.0  0.31665  0.07444  0.34671  1.0000
  C   C54       1.0  0.29888  0.09199  0.34832  1.0000
  H   H33       1.0  0.31139  0.02752  0.34852  1.0000
  O   O14       1.0  0.31634  0.12607  0.35529  1.0000
  C   C55       1.0  0.20902  0.41341  0.34946  1.0000
  C   C56       1.0  0.19125  0.43096  0.34769  1.0000
  C   C57       1.0  0.20965  0.46602  0.33674  1.0000
  O   O15       1.0  0.19153  0.37934  0.35671  1.0000
  H   H34       1.0  0.19656  0.47791  0.34934  1.0000
  C   C58       1.0  0.15592  0.24659  0.34265  1.0000
  N   N10       1.0  0.14423  0.25196  0.42100  1.0000
  C   C59       1.0  0.26220  0.35062  0.35655  1.0000
  C   C60       1.0  0.26001  0.41067  0.34310  1.0000
  N   N11       1.0  0.25461  0.39353  0.42126  1.0000
  C   C61       1.0  0.25688  0.36554  0.43366  1.0000
  C   C62       1.0  0.24996  0.35175  0.52619  1.0000
  O   O16       1.0  0.25665  0.32507  0.54358  1.0000
  H   H35       1.0  0.22419  0.34435  0.54463  1.0000
  H   H36       1.0  0.26649  0.37201  0.57119  1.0000
  H   H37       1.0  0.23670  0.30371  0.52777  1.0000
  C   C63       1.0  0.15602  0.41304  0.35796  1.0000
  C   C64       1.0  0.14084  0.39265  0.43454  1.0000
  C   C65       1.0  0.15451  0.39930  0.52717  1.0000
  O   O17       1.0  0.18121  0.43262  0.54498  1.0000
  H   H38       1.0  0.16187  0.38087  0.54535  1.0000
  H   H39       1.0  0.13421  0.39551  0.57209  1.0000
  H   H40       1.0  0.20256  0.43405  0.52882  1.0000
  C   C66       1.0  0.41428  0.26092  0.35678  1.0000
  C   C67       1.0  0.35197  0.25861  0.34399  1.0000
  N   N12       1.0  0.36381  0.25323  0.42198  1.0000
  C   C68       1.0  0.39411  0.25555  0.43407  1.0000
  C   C69       1.0  0.40108  0.24862  0.52647  1.0000
  O   O18       1.0  0.43447  0.25531  0.54354  1.0000
  H   H41       1.0  0.38273  0.22284  0.54494  1.0000
  H   H42       1.0  0.39740  0.26514  0.57163  1.0000
  H   H43       1.0  0.43587  0.23536  0.52756  1.0000
  C   C70       1.0  0.24557  0.15467  0.35832  1.0000
  C   C71       1.0  0.24782  0.09459  0.34288  1.0000
  N   N13       1.0  0.25308  0.11150  0.42144  1.0000
  C   C72       1.0  0.25073  0.13940  0.43478  1.0000
  C   C73       1.0  0.25770  0.15297  0.52751  1.0000
  O   O19       1.0  0.25103  0.17963  0.54551  1.0000
  H   H44       1.0  0.28348  0.16034  0.54573  1.0000
  H   H45       1.0  0.24119  0.13262  0.57229  1.0000
  H   H46       1.0  0.27094  0.20101  0.52952  1.0000
  C   C74       1.0  0.35193  0.09244  0.35627  1.0000
  C   C75       1.0  0.41195  0.15461  0.34219  1.0000
  N   N14       1.0  0.39492  0.14294  0.42055  1.0000
  C   C76       1.0  0.36691  0.11270  0.43325  1.0000
  C   C77       1.0  0.35323  0.10588  0.52588  1.0000
  O   O20       1.0  0.32651  0.07254  0.54340  1.0000
  H   H47       1.0  0.34589  0.12429  0.54446  1.0000
  H   H48       1.0  0.37352  0.10957  0.57070  1.0000
  H   H49       1.0  0.30516  0.07117  0.52766  1.0000
  C   C78       1.0  0.48584  0.74352  0.31932  1.0000
  C   C79       1.0  0.43117  0.68989  0.33308  1.0000
  C   C80       1.0  0.46572  0.70764  0.31057  1.0000
  O   O21       1.0  0.47797  0.68817  0.27882  1.0000
  H   H50       1.0  0.98229  0.69326  0.21458  1.0000
  H   H51       1.0  0.52578  0.81208  0.21465  1.0000
  H   H52       1.0  0.37244  0.68884  0.29266  1.0000
  H   H53       1.0  0.13558  0.81660  0.29404  1.0000
  C   C81       1.0  0.26308  0.74360  0.31989  1.0000
  C   C82       1.0  0.31668  0.74259  0.33489  1.0000
  C   C83       1.0  0.29896  0.75933  0.31133  1.0000
  C   C84       1.0  0.24481  0.76165  0.31955  1.0000
  C   C85       1.0  0.20893  0.74588  0.31074  1.0000
  C   C86       1.0  0.19119  0.76268  0.33338  1.0000
  O   O22       1.0  0.31846  0.79099  0.27924  1.0000
  O   O23       1.0  0.18946  0.71417  0.27893  1.0000
  H   H54       1.0  0.31334  0.79013  0.21500  1.0000
  H   H55       1.0  0.19461  0.71495  0.21473  1.0000
  H   H56       1.0  0.31788  0.68498  0.29601  1.0000
  H   H57       1.0  0.19010  0.82032  0.29304  1.0000
  C   C87       1.0  0.26296  0.52083  0.31936  1.0000
  C   C88       1.0  0.26395  0.57546  0.33341  1.0000
  C   C89       1.0  0.24716  0.54093  0.31077  1.0000
  C   C90       1.0  0.24493  0.98452  0.31964  1.0000
  C   C91       1.0  0.26068  0.96439  0.31093  1.0000
  C   C92       1.0  0.24394  0.92990  0.33413  1.0000
  O   O24       1.0  0.21543  0.52867  0.27909  1.0000
  O   O25       1.0  0.29235  0.97660  0.27887  1.0000
  H   H58       1.0  0.21619  0.02434  0.21484  1.0000
  H   H59       1.0  0.29149  0.48085  0.21462  1.0000
  H   H60       1.0  0.32156  0.63426  0.29325  1.0000
  H   H61       1.0  0.18630  0.87108  0.29473  1.0000
  C   C93       1.0  0.13447  0.73869  0.26804  1.0000
  H   H62       1.0  0.14294  0.73868  0.20478  1.0000
  N   N15       1.0  0.26661  0.86730  0.27760  1.0000
  C   C94       1.0  0.26793  0.89731  0.26819  1.0000
  H   H63       1.0  0.26837  0.90617  0.20512  1.0000
  N   N16       1.0  0.13963  0.90075  0.27858  1.0000
  N   N17       1.0  0.40192  0.76535  0.27800  1.0000
  C   C95       1.0  0.37320  0.76665  0.26892  1.0000
  H   H64       1.0  0.36474  0.76713  0.20594  1.0000
  N   N18       1.0  0.24152  0.63837  0.27880  1.0000
  C   C96       1.0  0.24006  0.60833  0.26842  1.0000
  H   H65       1.0  0.24018  0.60000  0.20504  1.0000
  N   N19       1.0  0.36840  0.60462  0.27702  1.0000
  C   C97       1.0  0.39839  0.63332  0.26734  1.0000
  H   H66       1.0  0.40716  0.64172  0.20420  1.0000
  C   C98       1.0  0.46733  0.76030  0.33621  1.0000
  C   C99       1.0  0.43226  0.74364  0.34685  1.0000
  C   C100      1.0  0.41466  0.70832  0.34800  1.0000
  H   H67       1.0  0.47920  0.78526  0.34899  1.0000
  O   O26       1.0  0.38057  0.69173  0.35474  1.0000
  O   O27       1.0  0.12735  0.81359  0.35604  1.0000
  C   C101      1.0  0.24626  0.70832  0.33693  1.0000
  C   C102      1.0  0.26291  0.68992  0.34830  1.0000
  C   C103      1.0  0.29822  0.70769  0.35046  1.0000
  H   H68       1.0  0.22128  0.69523  0.34925  1.0000
  O   O28       1.0  0.31478  0.69018  0.35795  1.0000
  C   C104      1.0  0.20961  0.79761  0.34836  1.0000
  C   C105      1.0  0.24493  0.81536  0.34694  1.0000
  C   C106      1.0  0.26160  0.79695  0.33623  1.0000
  O   O29       1.0  0.19301  0.81510  0.35513  1.0000
  H   H69       1.0  0.28658  0.81006  0.34878  1.0000
  C   C107      1.0  0.29828  0.53937  0.33582  1.0000
  C   C108      1.0  0.31665  0.57444  0.34671  1.0000
  C   C109      1.0  0.29888  0.59199  0.34832  1.0000
  H   H70       1.0  0.31139  0.52752  0.34852  1.0000
  O   O30       1.0  0.31634  0.62607  0.35529  1.0000
  C   C110      1.0  0.20902  0.91341  0.34946  1.0000
  C   C111      1.0  0.19125  0.93096  0.34769  1.0000
  C   C112      1.0  0.20965  0.96602  0.33674  1.0000
  O   O31       1.0  0.19153  0.87934  0.35671  1.0000
  H   H71       1.0  0.19656  0.97791  0.34934  1.0000
  C   C113      1.0  0.15592  0.74659  0.34265  1.0000
  N   N20       1.0  0.14423  0.75196  0.42100  1.0000
  C   C114      1.0  0.26220  0.85062  0.35655  1.0000
  C   C115      1.0  0.26001  0.91068  0.34310  1.0000
  N   N21       1.0  0.25461  0.89353  0.42126  1.0000
  C   C116      1.0  0.25688  0.86554  0.43366  1.0000
  C   C117      1.0  0.24996  0.85175  0.52619  1.0000
  O   O32       1.0  0.25665  0.82508  0.54358  1.0000
  H   H72       1.0  0.22419  0.84435  0.54463  1.0000
  H   H73       1.0  0.26649  0.87201  0.57119  1.0000
  H   H74       1.0  0.23670  0.80371  0.52777  1.0000
  C   C118      1.0  0.15602  0.91304  0.35796  1.0000
  C   C119      1.0  0.14084  0.89265  0.43454  1.0000
  C   C120      1.0  0.15451  0.89929  0.52717  1.0000
  O   O33       1.0  0.18121  0.93261  0.54498  1.0000
  H   H75       1.0  0.16187  0.88087  0.54535  1.0000
  H   H76       1.0  0.13421  0.89551  0.57209  1.0000
  H   H77       1.0  0.20256  0.93405  0.52882  1.0000
  C   C121      1.0  0.41428  0.76092  0.35678  1.0000
  C   C122      1.0  0.35197  0.75861  0.34399  1.0000
  N   N22       1.0  0.36381  0.75323  0.42198  1.0000
  C   C123      1.0  0.39411  0.75555  0.43407  1.0000
  C   C124      1.0  0.40108  0.74862  0.52647  1.0000
  O   O34       1.0  0.43447  0.75531  0.54354  1.0000
  H   H78       1.0  0.38273  0.72284  0.54494  1.0000
  H   H79       1.0  0.39740  0.76514  0.57163  1.0000
  H   H80       1.0  0.43587  0.73536  0.52756  1.0000
  C   C125      1.0  0.24557  0.65467  0.35832  1.0000
  C   C126      1.0  0.24782  0.59459  0.34288  1.0000
  N   N23       1.0  0.25308  0.61150  0.42144  1.0000
  C   C127      1.0  0.25073  0.63940  0.43478  1.0000
  C   C128      1.0  0.25770  0.65297  0.52751  1.0000
  O   O35       1.0  0.25103  0.67963  0.54551  1.0000
  H   H81       1.0  0.28348  0.66034  0.54573  1.0000
  H   H82       1.0  0.24119  0.63262  0.57229  1.0000
  H   H83       1.0  0.27094  0.70101  0.52952  1.0000
  C   C129      1.0  0.35193  0.59244  0.35627  1.0000
  C   C130      1.0  0.41195  0.65460  0.34219  1.0000
  N   N24       1.0  0.39492  0.64294  0.42055  1.0000
  C   C131      1.0  0.36691  0.61271  0.43325  1.0000
  C   C132      1.0  0.35323  0.60588  0.52588  1.0000
  O   O36       1.0  0.32651  0.57254  0.54340  1.0000
  H   H84       1.0  0.34590  0.62429  0.54446  1.0000
  H   H85       1.0  0.37352  0.60957  0.57070  1.0000
  H   H86       1.0  0.30516  0.57117  0.52766  1.0000
  C   C133      1.0  0.98584  0.24352  0.31932  1.0000
  C   C134      1.0  0.93117  0.18989  0.33308  1.0000
  C   C135      1.0  0.96572  0.20764  0.31057  1.0000
  C   C136      1.0  0.52216  0.26180  0.31937  1.0000
  C   C137      1.0  0.54227  0.29768  0.31079  1.0000
  C   C138      1.0  0.57679  0.31542  0.33369  1.0000
  O   O37       1.0  0.97797  0.18816  0.27882  1.0000
  O   O38       1.0  0.53004  0.31716  0.27892  1.0000
  H   H87       1.0  0.48229  0.19326  0.21458  1.0000
  H   H88       1.0  0.87243  0.18884  0.29266  1.0000
  H   H89       1.0  0.63558  0.31660  0.29404  1.0000
  C   C139      1.0  0.76308  0.24360  0.31989  1.0000
  C   C140      1.0  0.81668  0.24259  0.33489  1.0000
  C   C141      1.0  0.79896  0.25933  0.31133  1.0000
  C   C142      1.0  0.74482  0.26165  0.31955  1.0000
  C   C143      1.0  0.70893  0.24588  0.31074  1.0000
  C   C144      1.0  0.69119  0.26268  0.33338  1.0000
  O   O39       1.0  0.81846  0.29099  0.27924  1.0000
  O   O40       1.0  0.68946  0.21417  0.27893  1.0000
  H   H90       1.0  0.81334  0.29013  0.21500  1.0000
  H   H91       1.0  0.69461  0.21495  0.21473  1.0000
  H   H92       1.0  0.81788  0.18497  0.29601  1.0000
  H   H93       1.0  0.69010  0.32032  0.29304  1.0000
  C   C145      1.0  0.76296  0.02083  0.31936  1.0000
  C   C146      1.0  0.76395  0.07546  0.33341  1.0000
  C   C147      1.0  0.74716  0.04093  0.31077  1.0000
  C   C148      1.0  0.74493  0.48452  0.31964  1.0000
  C   C149      1.0  0.76068  0.46439  0.31093  1.0000
  C   C150      1.0  0.74393  0.42990  0.33413  1.0000
  O   O41       1.0  0.71543  0.02867  0.27909  1.0000
  O   O42       1.0  0.79235  0.47660  0.27887  1.0000
  H   H94       1.0  0.71619  0.52434  0.21484  1.0000
  H   H95       1.0  0.79149  0.98085  0.21462  1.0000
  H   H96       1.0  0.82156  0.13426  0.29325  1.0000
  H   H97       1.0  0.68630  0.37108  0.29473  1.0000
  N   N25       1.0  0.60586  0.24015  0.27795  1.0000
  C   C151      1.0  0.63447  0.23869  0.26804  1.0000
  H   H98       1.0  0.64294  0.23868  0.20478  1.0000
  N   N26       1.0  0.76661  0.36730  0.27760  1.0000
  C   C152      1.0  0.76793  0.39731  0.26819  1.0000
  H   H99       1.0  0.76837  0.40617  0.20512  1.0000
  N   N27       1.0  0.63963  0.40075  0.27858  1.0000
  C   C153      1.0  0.60957  0.37214  0.26843  1.0000
  H   H100      1.0  0.60119  0.36367  0.20511  1.0000
  N   N28       1.0  0.90192  0.26535  0.27800  1.0000
  C   C154      1.0  0.87320  0.26665  0.26892  1.0000
  H   H101      1.0  0.86474  0.26713  0.20594  1.0000
  N   N29       1.0  0.74152  0.13837  0.27880  1.0000
  C   C155      1.0  0.74007  0.10833  0.26842  1.0000
  H   H102      1.0  0.74018  0.10000  0.20504  1.0000
  N   N30       1.0  0.86840  0.10463  0.27702  1.0000
  C   C156      1.0  0.89840  0.13332  0.26734  1.0000
  H   H103      1.0  0.90716  0.14172  0.20420  1.0000
  C   C157      1.0  0.96733  0.26030  0.33621  1.0000
  C   C158      1.0  0.93226  0.24364  0.34685  1.0000
  C   C159      1.0  0.91466  0.20832  0.34800  1.0000
  H   H104      1.0  0.97920  0.28526  0.34899  1.0000
  O   O43       1.0  0.88057  0.19173  0.35474  1.0000
  C   C160      1.0  0.59328  0.29700  0.34889  1.0000
  C   C161      1.0  0.57572  0.26168  0.34718  1.0000
  C   C162      1.0  0.54066  0.24501  0.33617  1.0000
  O   O44       1.0  0.62735  0.31359  0.35604  1.0000
  H   H105      1.0  0.52879  0.22005  0.34896  1.0000
  C   C163      1.0  0.74626  0.20832  0.33693  1.0000
  C   C164      1.0  0.76291  0.18992  0.34830  1.0000
  C   C165      1.0  0.79822  0.20769  0.35046  1.0000
  H   H106      1.0  0.72128  0.19523  0.34925  1.0000
  O   O45       1.0  0.81478  0.19018  0.35795  1.0000
  C   C166      1.0  0.70961  0.29761  0.34836  1.0000
  C   C167      1.0  0.74493  0.31535  0.34694  1.0000
  C   C168      1.0  0.76160  0.29695  0.33623  1.0000
  O   O46       1.0  0.69301  0.31510  0.35513  1.0000
  H   H107      1.0  0.78658  0.31006  0.34878  1.0000
  C   C169      1.0  0.79827  0.03937  0.33582  1.0000
  C   C170      1.0  0.81665  0.07444  0.34671  1.0000
  C   C171      1.0  0.79888  0.09199  0.34832  1.0000
  H   H108      1.0  0.81139  0.02752  0.34852  1.0000
  O   O47       1.0  0.81634  0.12607  0.35529  1.0000
  C   C172      1.0  0.70902  0.41341  0.34946  1.0000
  C   C173      1.0  0.69125  0.43096  0.34769  1.0000
  C   C174      1.0  0.70965  0.46602  0.33674  1.0000
  O   O48       1.0  0.69153  0.37934  0.35671  1.0000
  H   H109      1.0  0.69657  0.47791  0.34934  1.0000
  C   C175      1.0  0.59365  0.24435  0.35728  1.0000
  C   C176      1.0  0.65592  0.24659  0.34265  1.0000
  N   N31       1.0  0.64423  0.25196  0.42100  1.0000
  C   C177      1.0  0.61397  0.24963  0.43405  1.0000
  C   C178      1.0  0.60732  0.25672  0.52661  1.0000
  O   O49       1.0  0.57397  0.25002  0.54437  1.0000
  H   H110      1.0  0.62570  0.28253  0.54462  1.0000
  H   H111      1.0  0.61116  0.24029  0.57168  1.0000
  H   H112      1.0  0.57247  0.26990  0.52818  1.0000
  C   C179      1.0  0.76220  0.35062  0.35655  1.0000
  C   C180      1.0  0.76001  0.41067  0.34310  1.0000
  N   N32       1.0  0.75461  0.39353  0.42126  1.0000
  C   C181      1.0  0.75688  0.36554  0.43366  1.0000
  C   C182      1.0  0.74996  0.35175  0.52619  1.0000
  O   O50       1.0  0.75665  0.32507  0.54358  1.0000
  H   H113      1.0  0.72419  0.34435  0.54463  1.0000
  H   H114      1.0  0.76650  0.37201  0.57119  1.0000
  H   H115      1.0  0.73670  0.30371  0.52777  1.0000
  C   C183      1.0  0.65602  0.41304  0.35796  1.0000
  C   C184      1.0  0.59595  0.35069  0.34299  1.0000
  N   N33       1.0  0.61293  0.36239  0.42142  1.0000
  C   C185      1.0  0.64084  0.39265  0.43454  1.0000
  C   C186      1.0  0.65451  0.39930  0.52717  1.0000
  O   O51       1.0  0.68121  0.43262  0.54498  1.0000
  H   H116      1.0  0.66187  0.38087  0.54535  1.0000
  H   H117      1.0  0.63421  0.39551  0.57209  1.0000
  H   H118      1.0  0.70256  0.43405  0.52882  1.0000
  C   C187      1.0  0.91428  0.26092  0.35678  1.0000
  C   C188      1.0  0.85197  0.25861  0.34399  1.0000
  N   N34       1.0  0.86381  0.25323  0.42198  1.0000
  C   C189      1.0  0.89411  0.25555  0.43407  1.0000
  C   C190      1.0  0.90108  0.24862  0.52647  1.0000
  O   O52       1.0  0.93447  0.25531  0.54354  1.0000
  H   H119      1.0  0.88273  0.22284  0.54494  1.0000
  H   H120      1.0  0.89740  0.26514  0.57163  1.0000
  H   H121      1.0  0.93587  0.23536  0.52756  1.0000
  C   C191      1.0  0.74557  0.15467  0.35832  1.0000
  C   C192      1.0  0.74782  0.09459  0.34288  1.0000
  N   N35       1.0  0.75308  0.11150  0.42144  1.0000
  C   C193      1.0  0.75073  0.13940  0.43478  1.0000
  C   C194      1.0  0.75770  0.15297  0.52751  1.0000
  O   O53       1.0  0.75103  0.17963  0.54551  1.0000
  H   H122      1.0  0.78349  0.16034  0.54573  1.0000
  H   H123      1.0  0.74119  0.13262  0.57229  1.0000
  H   H124      1.0  0.77094  0.20101  0.52952  1.0000
  C   C195      1.0  0.85193  0.09244  0.35627  1.0000
  C   C196      1.0  0.91195  0.15461  0.34219  1.0000
  N   N36       1.0  0.89492  0.14294  0.42055  1.0000
  C   C197      1.0  0.86691  0.11270  0.43325  1.0000
  C   C198      1.0  0.85323  0.10588  0.52588  1.0000
  O   O54       1.0  0.82651  0.07254  0.54340  1.0000
  H   H125      1.0  0.84590  0.12429  0.54446  1.0000
  H   H126      1.0  0.87352  0.10957  0.57070  1.0000
  H   H127      1.0  0.80516  0.07117  0.52766  1.0000
  C   C199      1.0  0.98584  0.74352  0.31932  1.0000
  C   C200      1.0  0.93117  0.68989  0.33308  1.0000
  C   C201      1.0  0.96572  0.70764  0.31057  1.0000
  C   C202      1.0  0.52215  0.76179  0.31937  1.0000
  C   C203      1.0  0.54227  0.79768  0.31079  1.0000
  C   C204      1.0  0.57679  0.81542  0.33369  1.0000
  O   O55       1.0  0.97797  0.68817  0.27882  1.0000
  O   O56       1.0  0.53004  0.81716  0.27892  1.0000
  H   H128      1.0  0.48229  0.69326  0.21458  1.0000
  H   H129      1.0  0.87243  0.68884  0.29266  1.0000
  H   H130      1.0  0.63558  0.81660  0.29404  1.0000
  C   C205      1.0  0.76308  0.74360  0.31989  1.0000
  C   C206      1.0  0.81668  0.74259  0.33489  1.0000
  C   C207      1.0  0.79896  0.75933  0.31133  1.0000
  C   C208      1.0  0.74481  0.76165  0.31955  1.0000
  C   C209      1.0  0.70893  0.74588  0.31074  1.0000
  C   C210      1.0  0.69119  0.76268  0.33338  1.0000
  O   O57       1.0  0.81846  0.79099  0.27924  1.0000
  O   O58       1.0  0.68946  0.71417  0.27893  1.0000
  H   H131      1.0  0.81334  0.79013  0.21500  1.0000
  H   H132      1.0  0.69461  0.71495  0.21473  1.0000
  H   H133      1.0  0.81789  0.68498  0.29601  1.0000
  H   H134      1.0  0.69010  0.82032  0.29304  1.0000
  C   C211      1.0  0.76296  0.52083  0.31936  1.0000
  C   C212      1.0  0.76395  0.57546  0.33341  1.0000
  C   C213      1.0  0.74716  0.54093  0.31077  1.0000
  C   C214      1.0  0.74493  0.98452  0.31964  1.0000
  C   C215      1.0  0.76068  0.96439  0.31093  1.0000
  C   C216      1.0  0.74394  0.92990  0.33413  1.0000
  O   O59       1.0  0.71543  0.52867  0.27909  1.0000
  O   O60       1.0  0.79235  0.97660  0.27887  1.0000
  H   H135      1.0  0.71619  0.02434  0.21484  1.0000
  H   H136      1.0  0.79149  0.48085  0.21462  1.0000
  H   H137      1.0  0.82156  0.63426  0.29325  1.0000
  H   H138      1.0  0.68630  0.87108  0.29473  1.0000
  N   N37       1.0  0.60586  0.74015  0.27795  1.0000
  C   C217      1.0  0.63447  0.73869  0.26804  1.0000
  H   H139      1.0  0.64294  0.73868  0.20478  1.0000
  N   N38       1.0  0.76661  0.86730  0.27760  1.0000
  C   C218      1.0  0.76793  0.89731  0.26819  1.0000
  H   H140      1.0  0.76837  0.90617  0.20512  1.0000
  N   N39       1.0  0.63963  0.90075  0.27858  1.0000
  C   C219      1.0  0.60957  0.87214  0.26843  1.0000
  H   H141      1.0  0.60119  0.86367  0.20511  1.0000
  N   N40       1.0  0.90192  0.76535  0.27800  1.0000
  C   C220      1.0  0.87320  0.76665  0.26892  1.0000
  H   H142      1.0  0.86474  0.76713  0.20594  1.0000
  N   N41       1.0  0.74152  0.63837  0.27880  1.0000
  C   C221      1.0  0.74007  0.60833  0.26842  1.0000
  H   H143      1.0  0.74018  0.60000  0.20504  1.0000
  N   N42       1.0  0.86840  0.60462  0.27702  1.0000
  C   C222      1.0  0.89840  0.63332  0.26734  1.0000
  H   H144      1.0  0.90716  0.64172  0.20420  1.0000
  C   C223      1.0  0.96733  0.76030  0.33621  1.0000
  C   C224      1.0  0.93226  0.74364  0.34685  1.0000
  C   C225      1.0  0.91466  0.70832  0.34800  1.0000
  H   H145      1.0  0.97920  0.78526  0.34899  1.0000
  O   O61       1.0  0.88057  0.69173  0.35474  1.0000
  C   C226      1.0  0.59328  0.79700  0.34889  1.0000
  C   C227      1.0  0.57572  0.76168  0.34718  1.0000
  C   C228      1.0  0.54066  0.74500  0.33617  1.0000
  O   O62       1.0  0.62735  0.81359  0.35604  1.0000
  H   H146      1.0  0.52879  0.72005  0.34896  1.0000
  C   C229      1.0  0.74626  0.70832  0.33693  1.0000
  C   C230      1.0  0.76291  0.68992  0.34830  1.0000
  C   C231      1.0  0.79822  0.70769  0.35046  1.0000
  H   H147      1.0  0.72128  0.69523  0.34925  1.0000
  O   O63       1.0  0.81478  0.69018  0.35795  1.0000
  C   C232      1.0  0.70961  0.79761  0.34836  1.0000
  C   C233      1.0  0.74494  0.81536  0.34694  1.0000
  C   C234      1.0  0.76160  0.79695  0.33623  1.0000
  O   O64       1.0  0.69301  0.81510  0.35513  1.0000
  H   H148      1.0  0.78658  0.81006  0.34878  1.0000
  C   C235      1.0  0.79828  0.53937  0.33582  1.0000
  C   C236      1.0  0.81665  0.57444  0.34671  1.0000
  C   C237      1.0  0.79888  0.59199  0.34832  1.0000
  H   H149      1.0  0.81139  0.52752  0.34852  1.0000
  O   O65       1.0  0.81634  0.62607  0.35529  1.0000
  C   C238      1.0  0.70902  0.91341  0.34946  1.0000
  C   C239      1.0  0.69125  0.93096  0.34769  1.0000
  C   C240      1.0  0.70965  0.96602  0.33674  1.0000
  O   O66       1.0  0.69153  0.87934  0.35671  1.0000
  H   H150      1.0  0.69657  0.97791  0.34934  1.0000
  C   C241      1.0  0.59365  0.74435  0.35728  1.0000
  C   C242      1.0  0.65592  0.74659  0.34265  1.0000
  N   N43       1.0  0.64423  0.75196  0.42100  1.0000
  C   C243      1.0  0.61397  0.74963  0.43405  1.0000
  C   C244      1.0  0.60732  0.75672  0.52661  1.0000
  O   O67       1.0  0.57397  0.75002  0.54437  1.0000
  H   H151      1.0  0.62570  0.78254  0.54462  1.0000
  H   H152      1.0  0.61116  0.74029  0.57168  1.0000
  H   H153      1.0  0.57248  0.76990  0.52818  1.0000
  C   C245      1.0  0.76220  0.85062  0.35655  1.0000
  C   C246      1.0  0.76001  0.91068  0.34310  1.0000
  N   N44       1.0  0.75461  0.89353  0.42126  1.0000
  C   C247      1.0  0.75688  0.86554  0.43366  1.0000
  C   C248      1.0  0.74996  0.85175  0.52619  1.0000
  O   O68       1.0  0.75665  0.82508  0.54358  1.0000
  H   H154      1.0  0.72419  0.84435  0.54463  1.0000
  H   H155      1.0  0.76650  0.87201  0.57119  1.0000
  H   H156      1.0  0.73670  0.80371  0.52777  1.0000
  C   C249      1.0  0.65602  0.91304  0.35796  1.0000
  C   C250      1.0  0.59595  0.85069  0.34299  1.0000
  N   N45       1.0  0.61293  0.86239  0.42142  1.0000
  C   C251      1.0  0.64084  0.89265  0.43454  1.0000
  C   C252      1.0  0.65451  0.89929  0.52717  1.0000
  O   O69       1.0  0.68121  0.93261  0.54498  1.0000
  H   H157      1.0  0.66187  0.88087  0.54535  1.0000
  H   H158      1.0  0.63421  0.89551  0.57209  1.0000
  H   H159      1.0  0.70256  0.93405  0.52882  1.0000
  C   C253      1.0  0.91428  0.76092  0.35678  1.0000
  C   C254      1.0  0.85197  0.75861  0.34399  1.0000
  N   N46       1.0  0.86381  0.75323  0.42198  1.0000
  C   C255      1.0  0.89411  0.75555  0.43407  1.0000
  C   C256      1.0  0.90108  0.74862  0.52647  1.0000
  O   O70       1.0  0.93447  0.75531  0.54354  1.0000
  H   H160      1.0  0.88273  0.72284  0.54494  1.0000
  H   H161      1.0  0.89740  0.76514  0.57163  1.0000
  H   H162      1.0  0.93587  0.73536  0.52756  1.0000
  C   C257      1.0  0.74557  0.65467  0.35832  1.0000
  C   C258      1.0  0.74782  0.59459  0.34288  1.0000
  N   N47       1.0  0.75308  0.61150  0.42144  1.0000
  C   C259      1.0  0.75073  0.63940  0.43478  1.0000
  C   C260      1.0  0.75770  0.65297  0.52751  1.0000
  O   O71       1.0  0.75103  0.67963  0.54551  1.0000
  H   H163      1.0  0.78349  0.66034  0.54573  1.0000
  H   H164      1.0  0.74119  0.63262  0.57229  1.0000
  H   H165      1.0  0.77094  0.70101  0.52952  1.0000
  C   C261      1.0  0.85193  0.59244  0.35627  1.0000
  C   C262      1.0  0.91195  0.65460  0.34219  1.0000
  N   N48       1.0  0.89492  0.64294  0.42055  1.0000
  C   C263      1.0  0.86691  0.61271  0.43325  1.0000
  C   C264      1.0  0.85323  0.60588  0.52588  1.0000
  O   O72       1.0  0.82651  0.57254  0.54340  1.0000
  H   H166      1.0  0.84589  0.62429  0.54446  1.0000
  H   H167      1.0  0.87352  0.60957  0.57070  1.0000
  H   H168      1.0  0.80516  0.57117  0.52766  1.0000
