data_image0
_chemical_formula_structural       CNCHCNCHCNCHCNCHCNCHCNCHNC2HNC2HNC2HNC2HNC2HNC2HNC2HNC2HNC2HNC2HNC2HNC2HCNCHCNCHCNCHCNCHCNCHCNCHNC2HNC2HNC2HNC2HNC2HNC2HNC2HNC2HNC2HNC2HNC2HNC2HC6H3C6H3C6H3C6H3C6H3C6H3C6H3C6H3C6H3C6H3C6H3C6H3C6H3C6H3C6H3C6H3C6H3C6H3C6H3C6H3C6H3C6H3C6H3C6H3NC2HNC2HNC2HNC2HNC2HNC2HCNCHCNCHCNCHCNCHCNCHCNCHCNCHCNCHCNCHCNCHCNCHCNCHNC2HNC2HNC2HNC2HNC2HNC2HCNCHCNCHCNCHCNCHCNCHCNCHCNCHCNCHCNCHCNCHCNCHCNCH
_chemical_formula_sum              "C288 N72 H144"
_cell_length_a       53.8569
_cell_length_b       53.8569
_cell_length_c       14.8172
_cell_angle_alpha    90
_cell_angle_beta     90
_cell_angle_gamma    120

_space_group_name_H-M_alt    "P 1"
_space_group_IT_number       1

loop_
  _space_group_symop_operation_xyz
  'x, y, z'

loop_
  _atom_site_type_symbol
  _atom_site_label
  _atom_site_symmetry_multiplicity
  _atom_site_fract_x
  _atom_site_fract_y
  _atom_site_fract_z
  _atom_site_occupancy
  C   C1        1.0  0.12501  0.41638  0.26432  1.0000
  N   N1        1.0  0.13901  0.44549  0.26657  1.0000
  C   C2        1.0  0.14527  0.46037  0.34533  1.0000
  H   H1        1.0  0.12158  0.40634  0.20328  1.0000
  C   C3        1.0  0.59897  0.71189  0.26440  1.0000
  N   N2        1.0  0.56986  0.69674  0.26678  1.0000
  C   C4        1.0  0.55505  0.68796  0.34563  1.0000
  H   H2        1.0  0.60898  0.71863  0.20335  1.0000
  C   C5        1.0  0.30362  0.89030  0.26438  1.0000
  N   N3        1.0  0.31877  0.87634  0.26666  1.0000
  C   C6        1.0  0.32746  0.87019  0.34546  1.0000
  H   H3        1.0  0.29695  0.89366  0.20335  1.0000
  C   C7        1.0  0.89339  0.59595  0.26433  1.0000
  N   N4        1.0  0.87941  0.56684  0.26660  1.0000
  C   C8        1.0  0.87325  0.55200  0.34541  1.0000
  H   H4        1.0  0.89675  0.60598  0.20329  1.0000
  C   C9        1.0  0.41947  0.30050  0.26433  1.0000
  N   N5        1.0  0.44857  0.31563  0.26658  1.0000
  C   C10       1.0  0.46342  0.32433  0.34537  1.0000
  H   H5        1.0  0.40943  0.29382  0.20331  1.0000
  C   C11       1.0  0.71489  0.12202  0.26434  1.0000
  N   N6        1.0  0.69977  0.13600  0.26668  1.0000
  C   C12       1.0  0.69108  0.14222  0.34542  1.0000
  H   H6        1.0  0.72154  0.11865  0.20329  1.0000
  N   N7        1.0  0.44838  0.13615  0.26712  1.0000
  C   C13       1.0  0.41927  0.12217  0.26469  1.0000
  C   C14       1.0  0.40343  0.11494  0.34583  1.0000
  H   H7        1.0  0.40927  0.11892  0.20364  1.0000
  N   N8        1.0  0.69999  0.56706  0.26693  1.0000
  C   C15       1.0  0.71511  0.59617  0.26461  1.0000
  C   C16       1.0  0.72383  0.61198  0.34579  1.0000
  H   H8        1.0  0.72179  0.60619  0.20356  1.0000
  N   N9        1.0  0.87923  0.31529  0.26719  1.0000
  C   C17       1.0  0.89319  0.30015  0.26474  1.0000
  C   C18       1.0  0.90049  0.29159  0.34586  1.0000
  H   H9        1.0  0.89638  0.29335  0.20369  1.0000
  N   N10       1.0  0.57014  0.87637  0.26693  1.0000
  C   C19       1.0  0.59925  0.89033  0.26465  1.0000
  C   C20       1.0  0.61505  0.89738  0.34585  1.0000
  H   H10       1.0  0.60927  0.89368  0.20361  1.0000
  N   N11       1.0  0.31845  0.44531  0.26704  1.0000
  C   C21       1.0  0.30330  0.41620  0.26465  1.0000
  C   C22       1.0  0.29466  0.40036  0.34579  1.0000
  H   H11       1.0  0.29655  0.40620  0.20360  1.0000
  N   N12       1.0  0.13923  0.69701  0.26715  1.0000
  C   C23       1.0  0.12525  0.71214  0.26479  1.0000
  C   C24       1.0  0.11800  0.72073  0.34594  1.0000
  H   H12       1.0  0.12200  0.71889  0.20376  1.0000
  N   N13       1.0  0.28484  0.53090  0.26684  1.0000
  C   C25       1.0  0.25993  0.53142  0.26453  1.0000
  C   C26       1.0  0.24625  0.53134  0.34582  1.0000
  H   H13       1.0  0.25040  0.52987  0.20351  1.0000
  N   N14       1.0  0.48448  0.75697  0.26671  1.0000
  C   C27       1.0  0.48397  0.73154  0.26448  1.0000
  C   C28       1.0  0.48411  0.71801  0.34586  1.0000
  H   H14       1.0  0.48549  0.72354  0.20348  1.0000
  N   N15       1.0  0.25848  0.73061  0.26666  1.0000
  C   C29       1.0  0.28389  0.75552  0.26448  1.0000
  C   C30       1.0  0.29742  0.76920  0.34587  1.0000
  H   H15       1.0  0.29190  0.76507  0.20349  1.0000
  N   N16       1.0  0.73371  0.48141  0.26681  1.0000
  C   C31       1.0  0.75862  0.48090  0.26455  1.0000
  C   C32       1.0  0.77228  0.48099  0.34590  1.0000
  H   H16       1.0  0.76817  0.48248  0.20355  1.0000
  N   N17       1.0  0.53403  0.25537  0.26676  1.0000
  C   C33       1.0  0.53453  0.28079  0.26450  1.0000
  C   C34       1.0  0.53442  0.29435  0.34584  1.0000
  H   H17       1.0  0.53297  0.28877  0.20349  1.0000
  N   N18       1.0  0.76005  0.28176  0.26677  1.0000
  C   C35       1.0  0.73463  0.25685  0.26450  1.0000
  C   C36       1.0  0.72109  0.24317  0.34586  1.0000
  H   H18       1.0  0.72664  0.24731  0.20349  1.0000
  C   C37       1.0  0.17632  0.57768  0.26434  1.0000
  N   N19       1.0  0.17663  0.60305  0.26660  1.0000
  C   C38       1.0  0.17591  0.61553  0.34553  1.0000
  H   H19       1.0  0.17784  0.56971  0.20329  1.0000
  C   C39       1.0  0.43772  0.60173  0.26430  1.0000
  N   N20       1.0  0.41236  0.57667  0.26652  1.0000
  C   C40       1.0  0.39993  0.56347  0.34548  1.0000
  H   H20       1.0  0.44569  0.61125  0.20325  1.0000
  C   C41       1.0  0.41370  0.83911  0.26434  1.0000
  N   N21       1.0  0.43876  0.83881  0.26657  1.0000
  C   C42       1.0  0.45194  0.83954  0.34553  1.0000
  H   H21       1.0  0.40420  0.83759  0.20330  1.0000
  C   C43       1.0  0.84220  0.43467  0.26433  1.0000
  N   N22       1.0  0.84188  0.40930  0.26654  1.0000
  C   C44       1.0  0.84262  0.39686  0.34548  1.0000
  H   H22       1.0  0.84065  0.44264  0.20329  1.0000
  C   C45       1.0  0.58079  0.41058  0.26446  1.0000
  N   N23       1.0  0.60616  0.43563  0.26670  1.0000
  C   C46       1.0  0.61858  0.44883  0.34567  1.0000
  H   H23       1.0  0.57283  0.40106  0.20341  1.0000
  C   C47       1.0  0.60480  0.17322  0.26428  1.0000
  N   N24       1.0  0.57975  0.17353  0.26650  1.0000
  C   C48       1.0  0.56657  0.17283  0.34542  1.0000
  H   H24       1.0  0.61430  0.17472  0.20322  1.0000
  N   N25       1.0  0.99400  0.27846  0.26729  1.0000
  C   C49       1.0  0.02320  0.29279  0.26497  1.0000
  C   C50       1.0  0.03936  0.30061  0.34572  1.0000
  H   H25       1.0  0.03322  0.29917  0.20383  1.0000
  N   N26       1.0  0.73688  0.71855  0.26731  1.0000
  C   C51       1.0  0.72253  0.73341  0.26503  1.0000
  C   C52       1.0  0.71474  0.74175  0.34585  1.0000
  H   H26       1.0  0.71610  0.73701  0.20392  1.0000
  N   N27       1.0  0.29685  0.02141  0.26726  1.0000
  C   C53       1.0  0.28198  0.99220  0.26501  1.0000
  C   C54       1.0  0.27366  0.97608  0.34582  1.0000
  H   H27       1.0  0.27836  0.98217  0.20389  1.0000
  N   N28       1.0  0.02448  0.73387  0.26718  1.0000
  C   C55       1.0  0.99527  0.71955  0.26498  1.0000
  C   C56       1.0  0.97916  0.71171  0.34582  1.0000
  H   H28       1.0  0.98523  0.71318  0.20387  1.0000
  N   N29       1.0  0.28166  0.29382  0.26733  1.0000
  C   C57       1.0  0.29598  0.27893  0.26502  1.0000
  C   C58       1.0  0.30372  0.27054  0.34582  1.0000
  H   H29       1.0  0.30242  0.27535  0.20391  1.0000
  N   N30       1.0  0.72172  0.99094  0.26719  1.0000
  C   C59       1.0  0.73660  0.02015  0.26494  1.0000
  C   C60       1.0  0.74485  0.03625  0.34577  1.0000
  H   H30       1.0  0.74026  0.03019  0.20382  1.0000
  N   N31       1.0  0.18188  0.32533  0.26750  1.0000
  C   C61       1.0  0.15633  0.32483  0.26508  1.0000
  C   C62       1.0  0.14226  0.32466  0.34586  1.0000
  H   H31       1.0  0.14874  0.32692  0.20403  1.0000
  N   N32       1.0  0.69007  0.85961  0.26751  1.0000
  C   C63       1.0  0.69058  0.83458  0.26510  1.0000
  C   C64       1.0  0.69084  0.82068  0.34582  1.0000
  H   H32       1.0  0.68849  0.82490  0.20403  1.0000
  N   N33       1.0  0.15570  0.83364  0.26735  1.0000
  C   C65       1.0  0.18073  0.85920  0.26501  1.0000
  C   C66       1.0  0.19472  0.87323  0.34575  1.0000
  H   H33       1.0  0.19035  0.86687  0.20391  1.0000
  N   N34       1.0  0.83660  0.68696  0.26747  1.0000
  C   C67       1.0  0.86215  0.68747  0.26512  1.0000
  C   C68       1.0  0.87627  0.68772  0.34590  1.0000
  H   H34       1.0  0.86974  0.68537  0.20407  1.0000
  N   N35       1.0  0.32843  0.15271  0.26743  1.0000
  C   C69       1.0  0.32793  0.17774  0.26510  1.0000
  C   C70       1.0  0.32768  0.19162  0.34588  1.0000
  H   H35       1.0  0.33004  0.18745  0.20405  1.0000
  N   N36       1.0  0.86270  0.17881  0.26741  1.0000
  C   C71       1.0  0.83766  0.15326  0.26508  1.0000
  C   C72       1.0  0.82380  0.13913  0.34587  1.0000
  H   H36       1.0  0.82796  0.14566  0.20405  1.0000
  C   C73       1.0  0.21763  0.52538  0.34575  1.0000
  C   C74       1.0  0.19531  0.49659  0.34565  1.0000
  C   C75       1.0  0.16634  0.48963  0.34552  1.0000
  C   C76       1.0  0.15974  0.51197  0.34544  1.0000
  C   C77       1.0  0.18200  0.54100  0.34557  1.0000
  C   C78       1.0  0.21089  0.54750  0.34569  1.0000
  H   H37       1.0  0.13877  0.50710  0.34530  1.0000
  H   H38       1.0  0.22717  0.56846  0.34575  1.0000
  H   H39       1.0  0.20028  0.48049  0.34565  1.0000
  C   C79       1.0  0.49005  0.69534  0.34570  1.0000
  C   C80       1.0  0.51884  0.70180  0.34573  1.0000
  C   C81       1.0  0.52579  0.67977  0.34561  1.0000
  C   C82       1.0  0.50344  0.65085  0.34554  1.0000
  C   C83       1.0  0.47441  0.64408  0.34552  1.0000
  C   C84       1.0  0.46792  0.66649  0.34557  1.0000
  H   H40       1.0  0.50829  0.63473  0.34549  1.0000
  H   H41       1.0  0.44697  0.66181  0.34558  1.0000
  H   H42       1.0  0.53495  0.72286  0.34582  1.0000
  C   C85       1.0  0.32008  0.79781  0.34573  1.0000
  C   C86       1.0  0.31363  0.82014  0.34569  1.0000
  C   C87       1.0  0.33565  0.84911  0.34557  1.0000
  C   C88       1.0  0.36458  0.85569  0.34549  1.0000
  C   C89       1.0  0.37134  0.83343  0.34556  1.0000
  C   C90       1.0  0.34894  0.80454  0.34565  1.0000
  H   H43       1.0  0.38069  0.87667  0.34540  1.0000
  H   H44       1.0  0.35362  0.78826  0.34569  1.0000
  H   H45       1.0  0.29256  0.81518  0.34573  1.0000
  C   C91       1.0  0.80090  0.48696  0.34575  1.0000
  C   C92       1.0  0.82321  0.51576  0.34568  1.0000
  C   C93       1.0  0.85219  0.52273  0.34553  1.0000
  C   C94       1.0  0.85879  0.50040  0.34544  1.0000
  C   C95       1.0  0.83655  0.47137  0.34554  1.0000
  C   C96       1.0  0.80764  0.46485  0.34568  1.0000
  H   H46       1.0  0.87977  0.50527  0.34532  1.0000
  H   H47       1.0  0.79138  0.44389  0.34574  1.0000
  H   H48       1.0  0.81823  0.53185  0.34573  1.0000
  C   C97       1.0  0.52845  0.31700  0.34565  1.0000
  C   C98       1.0  0.49966  0.31052  0.34557  1.0000
  C   C99       1.0  0.49269  0.33253  0.34547  1.0000
  C   C100      1.0  0.51502  0.36147  0.34545  1.0000
  C   C101      1.0  0.54405  0.36825  0.34554  1.0000
  C   C102      1.0  0.55057  0.34587  0.34564  1.0000
  H   H49       1.0  0.51015  0.37757  0.34539  1.0000
  H   H50       1.0  0.57153  0.35056  0.34573  1.0000
  H   H51       1.0  0.48356  0.28945  0.34559  1.0000
  C   C103      1.0  0.69843  0.21456  0.34573  1.0000
  C   C104      1.0  0.70490  0.19224  0.34569  1.0000
  C   C105      1.0  0.68288  0.16326  0.34555  1.0000
  C   C106      1.0  0.65395  0.15667  0.34544  1.0000
  C   C107      1.0  0.64717  0.17893  0.34553  1.0000
  C   C108      1.0  0.66957  0.20783  0.34565  1.0000
  H   H52       1.0  0.63784  0.13570  0.34532  1.0000
  H   H53       1.0  0.66488  0.22410  0.34569  1.0000
  H   H54       1.0  0.72596  0.19720  0.34573  1.0000
  C   C109      1.0  0.52850  0.21445  0.34582  1.0000
  C   C110      1.0  0.49966  0.19226  0.34593  1.0000
  C   C111      1.0  0.49255  0.16324  0.34581  1.0000
  C   C112      1.0  0.51479  0.15650  0.34563  1.0000
  C   C113      1.0  0.54385  0.17865  0.34557  1.0000
  C   C114      1.0  0.55053  0.20759  0.34563  1.0000
  H   H55       1.0  0.50982  0.13548  0.34557  1.0000
  H   H56       1.0  0.57152  0.22379  0.34557  1.0000
  H   H57       1.0  0.48364  0.19734  0.34607  1.0000
  C   C115      1.0  0.69828  0.48692  0.34580  1.0000
  C   C116      1.0  0.70492  0.51575  0.34579  1.0000
  C   C117      1.0  0.68300  0.52286  0.34569  1.0000
  C   C118      1.0  0.65402  0.50061  0.34561  1.0000
  C   C119      1.0  0.64712  0.47156  0.34564  1.0000
  C   C120      1.0  0.66939  0.46488  0.34574  1.0000
  H   H58       1.0  0.63798  0.50558  0.34555  1.0000
  H   H59       1.0  0.66461  0.44389  0.34578  1.0000
  H   H60       1.0  0.72602  0.53178  0.34584  1.0000
  C   C121      1.0  0.80101  0.31716  0.34577  1.0000
  C   C122      1.0  0.82321  0.31051  0.34592  1.0000
  C   C123      1.0  0.85223  0.33243  0.34584  1.0000
  C   C124      1.0  0.85897  0.36141  0.34571  1.0000
  C   C125      1.0  0.83680  0.36831  0.34557  1.0000
  C   C126      1.0  0.80786  0.34604  0.34558  1.0000
  H   H61       1.0  0.87997  0.37745  0.34571  1.0000
  H   H62       1.0  0.79166  0.35083  0.34551  1.0000
  H   H63       1.0  0.81813  0.28941  0.34607  1.0000
  C   C127      1.0  0.49005  0.79794  0.34580  1.0000
  C   C128      1.0  0.51889  0.82015  0.34585  1.0000
  C   C129      1.0  0.52598  0.84917  0.34577  1.0000
  C   C130      1.0  0.50373  0.85589  0.34563  1.0000
  C   C131      1.0  0.47467  0.83373  0.34561  1.0000
  C   C132      1.0  0.46801  0.80479  0.34567  1.0000
  H   H64       1.0  0.50869  0.87690  0.34557  1.0000
  H   H65       1.0  0.44702  0.78858  0.34563  1.0000
  H   H66       1.0  0.53492  0.81508  0.34590  1.0000
  C   C133      1.0  0.32022  0.52537  0.34586  1.0000
  C   C134      1.0  0.31359  0.49654  0.34596  1.0000
  C   C135      1.0  0.33551  0.48943  0.34581  1.0000
  C   C136      1.0  0.36449  0.51168  0.34565  1.0000
  C   C137      1.0  0.37138  0.54074  0.34559  1.0000
  C   C138      1.0  0.34911  0.54741  0.34567  1.0000
  H   H67       1.0  0.38053  0.50672  0.34559  1.0000
  H   H68       1.0  0.35389  0.56840  0.34564  1.0000
  H   H69       1.0  0.29249  0.48051  0.34610  1.0000
  C   C139      1.0  0.21752  0.69522  0.34576  1.0000
  C   C140      1.0  0.19532  0.70186  0.34590  1.0000
  C   C141      1.0  0.16630  0.67995  0.34587  1.0000
  C   C142      1.0  0.15957  0.65096  0.34574  1.0000
  C   C143      1.0  0.18172  0.64406  0.34562  1.0000
  C   C144      1.0  0.21067  0.66633  0.34560  1.0000
  H   H70       1.0  0.13856  0.63492  0.34575  1.0000
  H   H71       1.0  0.22687  0.66155  0.34551  1.0000
  H   H72       1.0  0.20040  0.72296  0.34600  1.0000
  C   C145      1.0  0.10837  0.37084  0.34561  1.0000
  C   C146      1.0  0.12872  0.36160  0.34571  1.0000
  C   C147      1.0  0.12024  0.33215  0.34580  1.0000
  C   C148      1.0  0.09044  0.31172  0.34584  1.0000
  C   C149      1.0  0.06951  0.32046  0.34573  1.0000
  C   C150      1.0  0.07891  0.35016  0.34560  1.0000
  H   H73       1.0  0.08395  0.29032  0.34592  1.0000
  H   H74       1.0  0.06413  0.35687  0.34552  1.0000
  H   H75       1.0  0.15015  0.37666  0.34569  1.0000
  C   C151      1.0  0.64456  0.74062  0.34559  1.0000
  C   C152      1.0  0.65383  0.77022  0.34560  1.0000
  C   C153      1.0  0.68329  0.79116  0.34573  1.0000
  C   C154      1.0  0.70369  0.78175  0.34586  1.0000
  C   C155      1.0  0.69492  0.75208  0.34579  1.0000
  C   C156      1.0  0.66521  0.73181  0.34569  1.0000
  H   H76       1.0  0.72509  0.79664  0.34595  1.0000
  H   H77       1.0  0.65847  0.71031  0.34567  1.0000
  H   H78       1.0  0.63879  0.77661  0.34555  1.0000
  C   C157      1.0  0.27478  0.90701  0.34565  1.0000
  C   C158      1.0  0.24518  0.88669  0.34567  1.0000
  C   C159      1.0  0.22424  0.89521  0.34574  1.0000
  C   C160      1.0  0.23364  0.92501  0.34577  1.0000
  C   C161      1.0  0.26332  0.94592  0.34575  1.0000
  C   C162      1.0  0.28359  0.93648  0.34569  1.0000
  H   H79       1.0  0.21876  0.93153  0.34582  1.0000
  H   H80       1.0  0.30509  0.95124  0.34568  1.0000
  H   H81       1.0  0.23879  0.86525  0.34563  1.0000
  C   C163      1.0  0.91012  0.64151  0.34558  1.0000
  C   C164      1.0  0.88978  0.65076  0.34565  1.0000
  C   C165      1.0  0.89828  0.68021  0.34578  1.0000
  C   C166      1.0  0.92807  0.70063  0.34587  1.0000
  C   C167      1.0  0.94900  0.69188  0.34575  1.0000
  C   C168      1.0  0.93959  0.66217  0.34563  1.0000
  H   H82       1.0  0.93458  0.72203  0.34598  1.0000
  H   H83       1.0  0.95436  0.65545  0.34558  1.0000
  H   H84       1.0  0.86834  0.63570  0.34563  1.0000
  C   C169      1.0  0.37391  0.27168  0.34556  1.0000
  C   C170      1.0  0.36466  0.24209  0.34564  1.0000
  C   C171      1.0  0.33520  0.22113  0.34577  1.0000
  C   C172      1.0  0.31479  0.23053  0.34588  1.0000
  C   C173      1.0  0.32354  0.26020  0.34575  1.0000
  C   C174      1.0  0.35325  0.28048  0.34560  1.0000
  H   H85       1.0  0.29339  0.21564  0.34600  1.0000
  H   H86       1.0  0.35998  0.30198  0.34556  1.0000
  H   H87       1.0  0.37971  0.23571  0.34562  1.0000
  C   C175      1.0  0.74374  0.10531  0.34559  1.0000
  C   C176      1.0  0.77333  0.12564  0.34566  1.0000
  C   C177      1.0  0.79428  0.11713  0.34577  1.0000
  C   C178      1.0  0.78488  0.08733  0.34586  1.0000
  C   C179      1.0  0.75521  0.06642  0.34575  1.0000
  C   C180      1.0  0.73493  0.07584  0.34563  1.0000
  H   H88       1.0  0.79977  0.08081  0.34595  1.0000
  H   H89       1.0  0.71343  0.06108  0.34557  1.0000
  H   H90       1.0  0.77972  0.14708  0.34564  1.0000
  C   C181      1.0  0.37368  0.10543  0.34575  1.0000
  C   C182      1.0  0.36440  0.12575  0.34577  1.0000
  C   C183      1.0  0.33493  0.11720  0.34583  1.0000
  C   C184      1.0  0.31454  0.08740  0.34588  1.0000
  C   C185      1.0  0.32334  0.06652  0.34582  1.0000
  C   C186      1.0  0.35303  0.07595  0.34576  1.0000
  H   H91       1.0  0.29313  0.08087  0.34594  1.0000
  H   H92       1.0  0.35978  0.06119  0.34576  1.0000
  H   H93       1.0  0.37944  0.14719  0.34579  1.0000
  C   C187      1.0  0.74407  0.64172  0.34573  1.0000
  C   C188      1.0  0.77367  0.65100  0.34582  1.0000
  C   C189      1.0  0.79459  0.68046  0.34588  1.0000
  C   C190      1.0  0.78521  0.70086  0.34592  1.0000
  C   C191      1.0  0.75553  0.69207  0.34580  1.0000
  C   C192      1.0  0.73525  0.66238  0.34570  1.0000
  H   H94       1.0  0.80009  0.72227  0.34599  1.0000
  H   H95       1.0  0.71375  0.65564  0.34566  1.0000
  H   H96       1.0  0.78007  0.63595  0.34584  1.0000
  C   C193      1.0  0.90999  0.27134  0.34578  1.0000
  C   C194      1.0  0.88966  0.24174  0.34577  1.0000
  C   C195      1.0  0.89820  0.22082  0.34580  1.0000
  C   C196      1.0  0.92800  0.23021  0.34587  1.0000
  C   C197      1.0  0.94888  0.25988  0.34584  1.0000
  C   C198      1.0  0.93947  0.28016  0.34583  1.0000
  H   H97       1.0  0.93452  0.21533  0.34590  1.0000
  H   H98       1.0  0.95423  0.30167  0.34585  1.0000
  H   H99       1.0  0.86822  0.23534  0.34577  1.0000
  C   C199      1.0  0.64480  0.90690  0.34581  1.0000
  C   C200      1.0  0.65408  0.88658  0.34589  1.0000
  C   C201      1.0  0.68354  0.89513  0.34588  1.0000
  C   C202      1.0  0.70394  0.92492  0.34586  1.0000
  C   C203      1.0  0.69515  0.94580  0.34577  1.0000
  C   C204      1.0  0.66545  0.93638  0.34573  1.0000
  H   H100      1.0  0.72535  0.93145  0.34586  1.0000
  H   H101      1.0  0.65871  0.95114  0.34567  1.0000
  H   H102      1.0  0.63904  0.86514  0.34594  1.0000
  C   C205      1.0  0.27443  0.37061  0.34573  1.0000
  C   C206      1.0  0.24483  0.36132  0.34577  1.0000
  C   C207      1.0  0.22392  0.33186  0.34585  1.0000
  C   C208      1.0  0.23332  0.31146  0.34592  1.0000
  C   C209      1.0  0.26300  0.32027  0.34583  1.0000
  C   C210      1.0  0.28327  0.34997  0.34574  1.0000
  H   H103      1.0  0.21845  0.29005  0.34600  1.0000
  H   H104      1.0  0.30477  0.35672  0.34573  1.0000
  H   H105      1.0  0.23842  0.37636  0.34577  1.0000
  C   C211      1.0  0.10850  0.74097  0.34590  1.0000
  C   C212      1.0  0.12882  0.77058  0.34589  1.0000
  C   C213      1.0  0.12027  0.79149  0.34581  1.0000
  C   C214      1.0  0.09048  0.78210  0.34573  1.0000
  C   C215      1.0  0.06960  0.75242  0.34578  1.0000
  C   C216      1.0  0.07902  0.73215  0.34586  1.0000
  H   H106      1.0  0.08395  0.79698  0.34567  1.0000
  H   H107      1.0  0.06426  0.71064  0.34587  1.0000
  H   H108      1.0  0.15026  0.77698  0.34591  1.0000
  N   N37       1.0  0.13921  0.44553  0.42417  1.0000
  C   C217      1.0  0.12518  0.41643  0.42663  1.0000
  C   C218      1.0  0.11785  0.40057  0.34551  1.0000
  H   H109      1.0  0.12198  0.40644  0.48767  1.0000
  N   N38       1.0  0.56990  0.69657  0.42445  1.0000
  C   C219      1.0  0.59901  0.71166  0.42673  1.0000
  C   C220      1.0  0.61482  0.72039  0.34553  1.0000
  H   H110      1.0  0.60904  0.71834  0.48777  1.0000
  N   N39       1.0  0.31875  0.87630  0.42433  1.0000
  C   C221      1.0  0.30364  0.89030  0.42673  1.0000
  C   C222      1.0  0.29501  0.89750  0.34557  1.0000
  H   H111      1.0  0.29689  0.89355  0.48777  1.0000
  N   N40       1.0  0.87936  0.56682  0.42426  1.0000
  C   C223      1.0  0.89338  0.59593  0.42665  1.0000
  C   C224      1.0  0.90064  0.61177  0.34551  1.0000
  H   H112      1.0  0.89663  0.60593  0.48769  1.0000
  N   N41       1.0  0.44861  0.31563  0.42424  1.0000
  C   C225      1.0  0.41950  0.30053  0.42665  1.0000
  C   C226      1.0  0.40364  0.29194  0.34553  1.0000
  H   H113      1.0  0.40950  0.29379  0.48770  1.0000
  N   N42       1.0  0.69982  0.13607  0.42421  1.0000
  C   C227      1.0  0.71490  0.12204  0.42664  1.0000
  C   C228      1.0  0.72349  0.11480  0.34550  1.0000
  H   H114      1.0  0.72165  0.11880  0.48769  1.0000
  C   C229      1.0  0.41925  0.12215  0.42698  1.0000
  N   N43       1.0  0.44836  0.13610  0.42466  1.0000
  C   C230      1.0  0.46325  0.14229  0.34591  1.0000
  H   H115      1.0  0.40923  0.11878  0.48804  1.0000
  C   C231      1.0  0.71531  0.59612  0.42689  1.0000
  N   N44       1.0  0.70014  0.56702  0.42445  1.0000
  C   C232      1.0  0.69134  0.55215  0.34566  1.0000
  H   H116      1.0  0.72204  0.60612  0.48795  1.0000
  C   C233      1.0  0.89336  0.30027  0.42704  1.0000
  N   N45       1.0  0.87943  0.31544  0.42478  1.0000
  C   C234      1.0  0.87319  0.32409  0.34602  1.0000
  H   H117      1.0  0.89678  0.29365  0.48809  1.0000
  C   C235      1.0  0.59920  0.89006  0.42698  1.0000
  N   N46       1.0  0.57010  0.87615  0.42460  1.0000
  C   C236      1.0  0.55528  0.87014  0.34575  1.0000
  H   H118      1.0  0.60921  0.89332  0.48803  1.0000
  C   C237      1.0  0.30329  0.41618  0.42698  1.0000
  N   N47       1.0  0.31848  0.44528  0.42471  1.0000
  C   C238      1.0  0.32718  0.46013  0.34591  1.0000
  H   H119      1.0  0.29662  0.40615  0.48802  1.0000
  C   C239      1.0  0.12524  0.71214  0.42710  1.0000
  N   N48       1.0  0.13918  0.69697  0.42481  1.0000
  C   C240      1.0  0.14533  0.68827  0.34600  1.0000
  H   H120      1.0  0.12188  0.71880  0.48815  1.0000
  C   C241      1.0  0.25979  0.53122  0.42721  1.0000
  N   N49       1.0  0.28472  0.53075  0.42507  1.0000
  C   C242      1.0  0.29778  0.53142  0.34601  1.0000
  H   H121      1.0  0.25022  0.52964  0.48817  1.0000
  C   C243      1.0  0.48425  0.73170  0.42717  1.0000
  N   N50       1.0  0.48471  0.75709  0.42491  1.0000
  C   C244      1.0  0.48401  0.76946  0.34580  1.0000
  H   H122      1.0  0.48585  0.72373  0.48816  1.0000
  C   C245      1.0  0.28373  0.75564  0.42719  1.0000
  N   N51       1.0  0.25834  0.73070  0.42493  1.0000
  C   C246      1.0  0.24602  0.71765  0.34578  1.0000
  H   H123      1.0  0.29169  0.76521  0.48818  1.0000
  C   C247      1.0  0.75870  0.48106  0.42724  1.0000
  N   N52       1.0  0.73376  0.48152  0.42501  1.0000
  C   C248      1.0  0.72072  0.48087  0.34592  1.0000
  H   H124      1.0  0.76826  0.48263  0.48823  1.0000
  C   C249      1.0  0.53433  0.28070  0.42721  1.0000
  N   N53       1.0  0.53388  0.25532  0.42503  1.0000
  C   C250      1.0  0.53457  0.24295  0.34592  1.0000
  H   H125      1.0  0.53274  0.28869  0.48818  1.0000
  C   C251      1.0  0.73474  0.25673  0.42721  1.0000
  N   N54       1.0  0.76014  0.28166  0.42499  1.0000
  C   C252      1.0  0.77253  0.29472  0.34590  1.0000
  H   H126      1.0  0.72676  0.24715  0.48820  1.0000
  N   N55       1.0  0.17669  0.60307  0.42443  1.0000
  C   C253      1.0  0.17634  0.57769  0.42667  1.0000
  C   C254      1.0  0.17624  0.56391  0.34548  1.0000
  H   H127      1.0  0.17798  0.56976  0.48770  1.0000
  N   N56       1.0  0.41237  0.57668  0.42443  1.0000
  C   C255      1.0  0.43774  0.60172  0.42667  1.0000
  C   C256      1.0  0.45148  0.61542  0.34546  1.0000
  H   H128      1.0  0.44568  0.61128  0.48769  1.0000
  N   N57       1.0  0.43872  0.83875  0.42448  1.0000
  C   C257      1.0  0.41369  0.83909  0.42672  1.0000
  C   C258      1.0  0.40001  0.83917  0.34552  1.0000
  H   H129      1.0  0.40412  0.83745  0.48774  1.0000
  N   N58       1.0  0.84186  0.40929  0.42443  1.0000
  C   C259      1.0  0.84221  0.43468  0.42665  1.0000
  C   C260      1.0  0.84233  0.44847  0.34548  1.0000
  H   H130      1.0  0.84059  0.44260  0.48768  1.0000
  N   N59       1.0  0.60611  0.43564  0.42460  1.0000
  C   C261      1.0  0.58072  0.41062  0.42678  1.0000
  C   C262      1.0  0.56695  0.39693  0.34560  1.0000
  H   H131      1.0  0.57277  0.40107  0.48780  1.0000
  N   N60       1.0  0.57981  0.17365  0.42436  1.0000
  C   C263      1.0  0.60485  0.17330  0.42662  1.0000
  C   C264      1.0  0.61850  0.17317  0.34544  1.0000
  H   H132      1.0  0.61441  0.17497  0.48764  1.0000
  C   C265      1.0  0.02324  0.29276  0.42655  1.0000
  N   N61       1.0  0.99403  0.27841  0.42437  1.0000
  C   C266      1.0  0.97889  0.27018  0.34586  1.0000
  H   H133      1.0  0.03328  0.29906  0.48768  1.0000
  C   C267      1.0  0.72268  0.73356  0.42664  1.0000
  N   N62       1.0  0.73706  0.71873  0.42439  1.0000
  C   C268      1.0  0.74523  0.71178  0.34584  1.0000
  H   H134      1.0  0.71644  0.73735  0.48780  1.0000
  C   C269      1.0  0.28186  0.99220  0.42663  1.0000
  N   N63       1.0  0.29670  0.02141  0.42442  1.0000
  C   C270      1.0  0.30364  0.03651  0.34584  1.0000
  H   H135      1.0  0.27807  0.98216  0.48778  1.0000
  C   C271      1.0  0.99529  0.71957  0.42661  1.0000
  N   N64       1.0  0.02450  0.73392  0.42434  1.0000
  C   C272      1.0  0.03959  0.74211  0.34573  1.0000
  H   H136      1.0  0.98526  0.71328  0.48775  1.0000
  C   C273      1.0  0.29576  0.27869  0.42664  1.0000
  N   N65       1.0  0.28142  0.29356  0.42444  1.0000
  C   C274      1.0  0.27331  0.30057  0.34589  1.0000
  H   H137      1.0  0.30198  0.27486  0.48779  1.0000
  C   C275      1.0  0.73662  0.02013  0.42657  1.0000
  N   N66       1.0  0.72177  0.99092  0.42429  1.0000
  C   C276      1.0  0.71486  0.97581  0.34571  1.0000
  H   H138      1.0  0.74037  0.03016  0.48772  1.0000
  C   C277      1.0  0.15626  0.32470  0.42665  1.0000
  N   N67       1.0  0.18178  0.32516  0.42432  1.0000
  C   C278      1.0  0.19456  0.32436  0.34592  1.0000
  H   H139      1.0  0.14854  0.32659  0.48774  1.0000
  C   C279      1.0  0.69071  0.83462  0.42657  1.0000
  N   N68       1.0  0.69023  0.85967  0.42430  1.0000
  C   C280      1.0  0.69103  0.87325  0.34592  1.0000
  H   H140      1.0  0.68882  0.82502  0.48766  1.0000
  C   C281      1.0  0.18087  0.85904  0.42647  1.0000
  N   N69       1.0  0.15582  0.83352  0.42414  1.0000
  C   C282      1.0  0.14214  0.82085  0.34575  1.0000
  H   H141      1.0  0.19054  0.86667  0.48754  1.0000
  C   C283      1.0  0.86225  0.68767  0.42667  1.0000
  N   N70       1.0  0.83672  0.68719  0.42440  1.0000
  C   C284      1.0  0.82396  0.68794  0.34593  1.0000
  H   H142      1.0  0.86999  0.68582  0.48776  1.0000
  C   C285      1.0  0.32773  0.17764  0.42664  1.0000
  N   N71       1.0  0.32820  0.15258  0.42436  1.0000
  C   C286      1.0  0.32744  0.13908  0.34588  1.0000
  H   H143      1.0  0.32959  0.18723  0.48774  1.0000
  C   C287      1.0  0.83777  0.15316  0.42662  1.0000
  N   N72       1.0  0.86282  0.17870  0.42434  1.0000
  C   C288      1.0  0.87632  0.19145  0.34586  1.0000
  H   H144      1.0  0.82819  0.14542  0.48772  1.0000
