data_image0
_chemical_formula_structural       NC2NO2C2OC10H6C6H2C2H2C10H6C6H2C2H2C2NC2H2NO2NC2NC2H2NO2NC3H2NONC8H7CHC8H7CHC3HC3NHNO2NC3HC3NHNO2NHC3NHN
_chemical_formula_sum              "N18 C84 O12 H48"
_cell_length_a       44.3697
_cell_length_b       44.3388
_cell_length_c       14.9485
_cell_angle_alpha    90
_cell_angle_beta     90
_cell_angle_gamma    120.015

_space_group_name_H-M_alt    "P 1"
_space_group_IT_number       1

loop_
  _space_group_symop_operation_xyz
  'x, y, z'

loop_
  _atom_site_type_symbol
  _atom_site_label
  _atom_site_symmetry_multiplicity
  _atom_site_fract_x
  _atom_site_fract_y
  _atom_site_fract_z
  _atom_site_occupancy
  N   N1        1.0  0.03978  0.51883  0.28193  1.0000
  C   C1        1.0  0.02105  0.50762  0.35898  1.0000
  C   C2        1.0  0.03944  0.51665  0.44147  1.0000
  N   N2        1.0  0.02116  0.50465  0.52326  1.0000
  O   O1        1.0  0.02664  0.52960  0.57355  1.0000
  O   O2        1.0  0.02956  0.48519  0.56413  1.0000
  C   C3        1.0  0.07493  0.53814  0.27822  1.0000
  C   C4        1.0  0.07631  0.53661  0.43928  1.0000
  O   O3        1.0  0.97818  0.42143  0.23531  1.0000
  C   C5        1.0  0.26168  0.63701  0.33045  1.0000
  C   C6        1.0  0.36724  0.62566  0.32166  1.0000
  C   C7        1.0  0.18734  0.60463  0.31685  1.0000
  C   C8        1.0  0.20955  0.63482  0.26677  1.0000
  C   C9        1.0  0.24596  0.65074  0.27362  1.0000
  C   C10       1.0  0.37154  0.76523  0.29856  1.0000
  C   C11       1.0  0.39221  0.80162  0.30807  1.0000
  C   C12       1.0  0.39997  0.58414  0.30263  1.0000
  C   C13       1.0  0.37136  0.57821  0.24840  1.0000
  C   C14       1.0  0.35527  0.59848  0.25787  1.0000
  H   H1        1.0  0.19942  0.64538  0.22351  1.0000
  H   H2        1.0  0.26094  0.67197  0.23424  1.0000
  H   H3        1.0  0.35127  0.75560  0.25414  1.0000
  H   H4        1.0  0.38585  0.81713  0.27132  1.0000
  H   H5        1.0  0.36206  0.55916  0.20037  1.0000
  H   H6        1.0  0.33521  0.59375  0.21565  1.0000
  C   C15       1.0  0.35145  0.64689  0.32931  1.0000
  C   C16       1.0  0.37208  0.68358  0.33532  1.0000
  C   C17       1.0  0.35718  0.70526  0.34094  1.0000
  C   C18       1.0  0.32044  0.68916  0.34016  1.0000
  C   C19       1.0  0.29874  0.65258  0.33407  1.0000
  C   C20       1.0  0.31481  0.63196  0.32895  1.0000
  H   H7        1.0  0.39862  0.69489  0.33249  1.0000
  H   H8        1.0  0.29948  0.60547  0.32393  1.0000
  C   C21       1.0  0.41619  0.56453  0.28888  1.0000
  C   C22       1.0  0.15143  0.58859  0.30499  1.0000
  H   H9        1.0  0.41117  0.55090  0.23249  1.0000
  H   H10       1.0  0.14249  0.59516  0.25174  1.0000
  C   C23       1.0  0.74303  0.36343  0.34019  1.0000
  C   C24       1.0  0.64056  0.37995  0.33072  1.0000
  C   C25       1.0  0.81698  0.39167  0.33030  1.0000
  C   C26       1.0  0.79386  0.36226  0.27900  1.0000
  C   C27       1.0  0.75765  0.34847  0.28373  1.0000
  C   C28       1.0  0.63143  0.23870  0.29539  1.0000
  C   C29       1.0  0.60875  0.20241  0.29389  1.0000
  C   C30       1.0  0.61244  0.42570  0.31617  1.0000
  C   C31       1.0  0.64052  0.43025  0.26172  1.0000
  C   C32       1.0  0.65426  0.40782  0.26877  1.0000
  H   H11       1.0  0.80317  0.35055  0.23691  1.0000
  H   H12       1.0  0.74204  0.32758  0.24404  1.0000
  H   H13       1.0  0.65304  0.24888  0.25539  1.0000
  H   H14       1.0  0.61473  0.18746  0.25357  1.0000
  H   H15       1.0  0.65134  0.45005  0.21581  1.0000
  H   H16       1.0  0.67425  0.41187  0.22704  1.0000
  C   C33       1.0  0.65491  0.35744  0.33825  1.0000
  C   C34       1.0  0.63305  0.32083  0.34191  1.0000
  C   C35       1.0  0.64658  0.29793  0.34680  1.0000
  C   C36       1.0  0.68320  0.31281  0.34816  1.0000
  C   C37       1.0  0.70612  0.34924  0.34382  1.0000
  C   C38       1.0  0.69137  0.37106  0.33951  1.0000
  H   H17       1.0  0.60669  0.31058  0.33684  1.0000
  H   H18       1.0  0.70757  0.39746  0.33576  1.0000
  C   C39       1.0  0.60010  0.44895  0.30851  1.0000
  C   C40       1.0  0.85263  0.40413  0.32479  1.0000
  H   H19       1.0  0.61514  0.47160  0.27809  1.0000
  H   H20       1.0  0.86051  0.38834  0.30028  1.0000
  C   C41       1.0  0.45515  0.54638  0.34431  1.0000
  C   C42       1.0  0.46545  0.53668  0.26510  1.0000
  N   N3        1.0  0.48510  0.52122  0.26962  1.0000
  C   C43       1.0  0.54323  0.50652  0.27530  1.0000
  C   C44       1.0  0.56156  0.48798  0.27434  1.0000
  H   H21       1.0  0.58041  0.49424  0.22700  1.0000
  H   H22       1.0  0.45901  0.54169  0.20351  1.0000
  N   N4        1.0  0.55174  0.53421  0.21474  1.0000
  O   O4        1.0  0.54745  0.52393  0.13496  1.0000
  O   O5        1.0  0.58268  0.55829  0.22452  1.0000
  N   N5        1.0  0.43707  0.56298  0.34611  1.0000
  C   C45       1.0  0.45605  0.90983  0.33891  1.0000
  C   C46       1.0  0.46168  0.92946  0.26035  1.0000
  N   N6        1.0  0.47821  0.96472  0.26439  1.0000
  C   C47       1.0  0.49608  0.03908  0.28001  1.0000
  C   C48       1.0  0.51530  0.07599  0.28155  1.0000
  H   H23       1.0  0.50749  0.08964  0.24193  1.0000
  H   H24       1.0  0.45378  0.91752  0.19948  1.0000
  N   N7        1.0  0.46580  0.02092  0.22683  1.0000
  O   O6        1.0  0.47265  0.02755  0.14518  1.0000
  O   O7        1.0  0.44296  0.02841  0.24847  1.0000
  N   N8        1.0  0.43917  0.87519  0.33292  1.0000
  C   C49       1.0  0.09466  0.54805  0.35788  1.0000
  C   C50       1.0  0.96652  0.46131  0.28629  1.0000
  C   C51       1.0  0.92966  0.44334  0.28516  1.0000
  H   H25       1.0  0.91686  0.42452  0.23783  1.0000
  H   H26       1.0  0.08663  0.54474  0.21692  1.0000
  N   N9        1.0  0.98548  0.45253  0.22577  1.0000
  O   O8        1.0  0.97969  0.45704  0.14599  1.0000
  N   N10       1.0  0.12934  0.56601  0.35999  1.0000
  C   C52       1.0  0.37859  0.74229  0.34840  1.0000
  C   C53       1.0  0.23949  0.60694  0.38101  1.0000
  C   C54       1.0  0.20301  0.59107  0.37452  1.0000
  C   C55       1.0  0.42074  0.81651  0.36807  1.0000
  C   C56       1.0  0.42789  0.79355  0.41741  1.0000
  C   C57       1.0  0.40730  0.75722  0.40769  1.0000
  C   C58       1.0  0.39577  0.63150  0.37620  1.0000
  C   C59       1.0  0.41181  0.61114  0.36701  1.0000
  H   H27       1.0  0.18802  0.56908  0.41138  1.0000
  H   H28       1.0  0.41299  0.74170  0.44654  1.0000
  H   H29       1.0  0.44806  0.80305  0.46225  1.0000
  H   H30       1.0  0.40509  0.65065  0.42387  1.0000
  H   H31       1.0  0.43262  0.61664  0.40722  1.0000
  H   H32       1.0  0.30918  0.70435  0.34671  1.0000
  H   H33       1.0  0.24973  0.59629  0.42350  1.0000
  C   C60       1.0  0.44089  0.85231  0.38236  1.0000
  H   H34       1.0  0.45763  0.86061  0.43324  1.0000
  C   C61       1.0  0.62397  0.26088  0.34751  1.0000
  C   C62       1.0  0.76617  0.39299  0.39115  1.0000
  C   C63       1.0  0.80246  0.40682  0.38650  1.0000
  C   C64       1.0  0.57767  0.18697  0.34453  1.0000
  C   C65       1.0  0.57010  0.20891  0.39689  1.0000
  C   C66       1.0  0.59293  0.24516  0.39868  1.0000
  C   C67       1.0  0.61229  0.37521  0.38475  1.0000
  C   C68       1.0  0.59851  0.39767  0.37777  1.0000
  H   H35       1.0  0.81816  0.42792  0.42549  1.0000
  H   H36       1.0  0.58662  0.26001  0.43831  1.0000
  H   H37       1.0  0.54778  0.19868  0.43434  1.0000
  H   H38       1.0  0.60189  0.35571  0.43141  1.0000
  H   H39       1.0  0.57844  0.39357  0.41922  1.0000
  H   H40       1.0  0.69348  0.29674  0.35393  1.0000
  H   H41       1.0  0.75672  0.40439  0.43374  1.0000
  C   C69       1.0  0.55404  0.15155  0.34025  1.0000
  H   H42       1.0  0.52872  0.14371  0.34041  1.0000
  C   C70       1.0  0.49626  0.51390  0.34705  1.0000
  C   C71       1.0  0.48669  0.52298  0.42915  1.0000
  C   C72       1.0  0.46638  0.53951  0.42613  1.0000
  H   H43       1.0  0.45981  0.54670  0.48481  1.0000
  C   C73       1.0  0.51683  0.49754  0.34069  1.0000
  C   C74       1.0  0.55423  0.46118  0.33665  1.0000
  C   C75       1.0  0.52743  0.45315  0.39881  1.0000
  N   N11       1.0  0.51022  0.47125  0.39863  1.0000
  H   H44       1.0  0.52071  0.43383  0.44507  1.0000
  N   N12       1.0  0.49856  0.51689  0.51137  1.0000
  O   O9        1.0  0.47355  0.49717  0.56114  1.0000
  O   O10       1.0  0.51758  0.54484  0.55249  1.0000
  N   N13       1.0  0.57030  0.44255  0.33883  1.0000
  C   C76       1.0  0.48989  0.98353  0.34133  1.0000
  C   C77       1.0  0.48438  0.96517  0.42313  1.0000
  C   C78       1.0  0.46725  0.92832  0.42048  1.0000
  H   H45       1.0  0.46244  0.91492  0.47935  1.0000
  C   C79       1.0  0.50720  0.02054  0.33577  1.0000
  C   C80       1.0  0.54494  0.09424  0.33657  1.0000
  C   C81       1.0  0.55536  0.07445  0.38792  1.0000
  N   N14       1.0  0.53635  0.03920  0.38616  1.0000
  H   H46       1.0  0.57681  0.08627  0.42832  1.0000
  N   N15       1.0  0.49448  0.98337  0.50546  1.0000
  O   O11       1.0  0.51592  0.97772  0.54630  1.0000
  O   O12       1.0  0.46871  0.97503  0.55545  1.0000
  N   N16       1.0  0.56397  0.12881  0.33993  1.0000
  H   H47       1.0  0.08989  0.54288  0.49823  1.0000
  C   C82       1.0  0.98414  0.48757  0.35193  1.0000
  C   C83       1.0  0.91042  0.45093  0.34755  1.0000
  C   C84       1.0  0.92938  0.47776  0.40956  1.0000
  N   N17       1.0  0.96466  0.49455  0.40966  1.0000
  H   H48       1.0  0.91692  0.48465  0.45579  1.0000
  N   N18       1.0  0.87576  0.43498  0.34964  1.0000
