data_image0
_chemical_formula_structural       CNC4H2CH3CNC4H2CH3CNC4H2CH3C4HCNHCH3C4HCNHCH3C4HCNHCH3C4HCNHCH3C4HCNHCH3C4HCNHCH3NC18H12NC18H12NC18H12NC18H12NC18H12NC18H12C4HCNHCH3C4HCNHCH3C4HCNHCH3CNC4H2CH3CNC4H2CH3CNC4H2CH3CNC4H2CH3CNC4H2CH3CNC4H2CH3
_chemical_formula_sum              "C216 N24 H162"
_cell_length_a       68.5261
_cell_length_b       68.526
_cell_length_c       14.862
_cell_angle_alpha    90
_cell_angle_beta     90
_cell_angle_gamma    120

_space_group_name_H-M_alt    "P 1"
_space_group_IT_number       1

loop_
  _space_group_symop_operation_xyz
  'x, y, z'

loop_
  _atom_site_type_symbol
  _atom_site_label
  _atom_site_symmetry_multiplicity
  _atom_site_fract_x
  _atom_site_fract_y
  _atom_site_fract_z
  _atom_site_occupancy
  C   C1        1.0  0.05428  0.51995  0.26178  1.0000
  N   N1        1.0  0.03142  0.50922  0.26473  1.0000
  C   C2        1.0  0.99487  0.49767  0.32639  1.0000
  C   C3        1.0  0.98291  0.49884  0.24986  1.0000
  C   C4        1.0  0.95896  0.48646  0.25139  1.0000
  C   C5        1.0  0.94652  0.47299  0.32558  1.0000
  H   H1        1.0  0.95031  0.48777  0.19778  1.0000
  H   H2        1.0  0.06171  0.51829  0.20496  1.0000
  C   C6        1.0  0.99458  0.51330  0.17064  1.0000
  H   H3        1.0  0.00402  0.50675  0.13517  1.0000
  H   H4        1.0  0.00615  0.53052  0.19262  1.0000
  H   H5        1.0  0.98290  0.51398  0.12250  1.0000
  C   C7        1.0  0.49166  0.53666  0.26182  1.0000
  N   N2        1.0  0.50239  0.52453  0.26478  1.0000
  C   C8        1.0  0.51392  0.49952  0.32644  1.0000
  C   C9        1.0  0.51275  0.48639  0.24992  1.0000
  C   C10       1.0  0.52512  0.47481  0.25146  1.0000
  C   C11       1.0  0.53860  0.47585  0.32564  1.0000
  H   H6        1.0  0.52382  0.46486  0.19785  1.0000
  H   H7        1.0  0.49334  0.54577  0.20502  1.0000
  C   C12       1.0  0.49828  0.48358  0.17071  1.0000
  H   H8        1.0  0.50483  0.49959  0.13523  1.0000
  H   H9        1.0  0.48106  0.47795  0.19269  1.0000
  H   H10       1.0  0.49760  0.47122  0.12258  1.0000
  C   C13       1.0  0.47496  0.95732  0.26180  1.0000
  N   N3        1.0  0.48709  0.98018  0.26476  1.0000
  C   C14       1.0  0.51211  0.01672  0.32642  1.0000
  C   C15       1.0  0.52525  0.02868  0.24993  1.0000
  C   C16       1.0  0.53682  0.05263  0.25146  1.0000
  C   C17       1.0  0.53576  0.06506  0.32562  1.0000
  H   H11       1.0  0.54679  0.06128  0.19788  1.0000
  H   H12       1.0  0.46585  0.94990  0.20501  1.0000
  C   C18       1.0  0.52807  0.01701  0.17076  1.0000
  H   H13       1.0  0.51208  0.00756  0.13523  1.0000
  H   H14       1.0  0.53371  0.00544  0.19280  1.0000
  H   H15       1.0  0.54044  0.02869  0.12265  1.0000
  C   C19       1.0  0.23304  0.55831  0.34589  1.0000
  C   C20       1.0  0.27331  0.55573  0.34514  1.0000
  C   C21       1.0  0.25358  0.53846  0.30232  1.0000
  C   C22       1.0  0.23376  0.54015  0.30374  1.0000
  H   H16       1.0  0.21936  0.52767  0.27463  1.0000
  C   C23       1.0  0.32324  0.55451  0.26338  1.0000
  N   N4        1.0  0.30300  0.55341  0.27138  1.0000
  H   H17       1.0  0.32769  0.55156  0.20146  1.0000
  C   C24       1.0  0.25294  0.51852  0.25956  1.0000
  H   H18       1.0  0.25875  0.51039  0.30720  1.0000
  H   H19       1.0  0.26379  0.52375  0.20034  1.0000
  H   H20       1.0  0.23602  0.50595  0.23782  1.0000
  C   C25       1.0  0.45336  0.67711  0.34593  1.0000
  C   C26       1.0  0.45595  0.71995  0.34516  1.0000
  C   C27       1.0  0.47322  0.71749  0.30238  1.0000
  C   C28       1.0  0.47153  0.69597  0.30380  1.0000
  H   H21       1.0  0.48400  0.69405  0.27471  1.0000
  C   C29       1.0  0.45716  0.77110  0.26336  1.0000
  N   N5        1.0  0.45827  0.75197  0.27138  1.0000
  H   H22       1.0  0.46012  0.77850  0.20143  1.0000
  C   C30       1.0  0.49317  0.73679  0.25964  1.0000
  H   H23       1.0  0.50129  0.75072  0.30730  1.0000
  H   H24       1.0  0.48794  0.74241  0.20042  1.0000
  H   H25       1.0  0.50574  0.73244  0.23791  1.0000
  C   C31       1.0  0.33453  0.77858  0.34605  1.0000
  C   C32       1.0  0.29169  0.73832  0.34530  1.0000
  C   C33       1.0  0.29414  0.75805  0.30255  1.0000
  C   C34       1.0  0.31566  0.77788  0.30397  1.0000
  H   H26       1.0  0.31758  0.79227  0.27490  1.0000
  C   C35       1.0  0.24054  0.68839  0.26351  1.0000
  N   N6        1.0  0.25967  0.70863  0.27153  1.0000
  H   H27       1.0  0.23312  0.68395  0.20160  1.0000
  C   C36       1.0  0.27485  0.75871  0.25987  1.0000
  H   H28       1.0  0.26092  0.75289  0.30754  1.0000
  H   H29       1.0  0.26922  0.74786  0.20063  1.0000
  H   H30       1.0  0.27919  0.77563  0.23817  1.0000
  C   C37       1.0  0.78208  0.44980  0.34603  1.0000
  C   C38       1.0  0.74221  0.45307  0.34502  1.0000
  C   C39       1.0  0.76214  0.47027  0.30308  1.0000
  C   C40       1.0  0.78176  0.46823  0.30456  1.0000
  H   H31       1.0  0.79629  0.48064  0.27605  1.0000
  C   C41       1.0  0.69291  0.45547  0.26312  1.0000
  N   N7        1.0  0.71294  0.45615  0.27121  1.0000
  H   H32       1.0  0.68863  0.45870  0.20131  1.0000
  C   C42       1.0  0.76319  0.49050  0.26119  1.0000
  H   H33       1.0  0.75749  0.49865  0.30916  1.0000
  H   H34       1.0  0.75245  0.48558  0.20168  1.0000
  H   H35       1.0  0.78022  0.50295  0.24011  1.0000
  C   C43       1.0  0.56180  0.33459  0.34603  1.0000
  C   C44       1.0  0.55851  0.29145  0.34498  1.0000
  C   C45       1.0  0.54132  0.29418  0.30300  1.0000
  C   C46       1.0  0.54337  0.31585  0.30451  1.0000
  H   H36       1.0  0.53096  0.31798  0.27597  1.0000
  C   C47       1.0  0.55613  0.23976  0.26303  1.0000
  N   N8        1.0  0.55545  0.25911  0.27114  1.0000
  H   H37       1.0  0.55292  0.23227  0.20121  1.0000
  C   C48       1.0  0.52110  0.27502  0.26107  1.0000
  H   H38       1.0  0.51294  0.26116  0.30902  1.0000
  H   H39       1.0  0.52603  0.26920  0.20158  1.0000
  H   H40       1.0  0.50865  0.27960  0.23996  1.0000
  C   C49       1.0  0.67699  0.22951  0.34616  1.0000
  C   C50       1.0  0.72013  0.26938  0.34511  1.0000
  C   C51       1.0  0.71741  0.24945  0.30324  1.0000
  C   C52       1.0  0.69574  0.22982  0.30474  1.0000
  H   H41       1.0  0.69362  0.21529  0.27628  1.0000
  C   C53       1.0  0.77183  0.31867  0.26318  1.0000
  N   N9        1.0  0.75248  0.29864  0.27128  1.0000
  H   H42       1.0  0.77933  0.32295  0.20137  1.0000
  C   C54       1.0  0.73658  0.24838  0.26142  1.0000
  H   H43       1.0  0.75043  0.25409  0.30942  1.0000
  H   H44       1.0  0.74241  0.25912  0.20190  1.0000
  H   H45       1.0  0.73200  0.23135  0.24039  1.0000
  N   N10       1.0  0.16428  0.58110  0.32914  1.0000
  C   C55       1.0  0.17715  0.60506  0.32397  1.0000
  C   C56       1.0  0.14028  0.56904  0.33103  1.0000
  C   C57       1.0  0.17718  0.57017  0.33951  1.0000
  C   C58       1.0  0.18260  0.56149  0.26338  1.0000
  C   C59       1.0  0.20028  0.55660  0.26663  1.0000
  C   C60       1.0  0.21320  0.56035  0.34590  1.0000
  C   C61       1.0  0.20678  0.56786  0.42334  1.0000
  C   C62       1.0  0.18912  0.57274  0.42017  1.0000
  C   C63       1.0  0.17939  0.61847  0.39956  1.0000
  C   C64       1.0  0.19634  0.64135  0.40254  1.0000
  C   C65       1.0  0.21193  0.65161  0.33092  1.0000
  C   C66       1.0  0.20865  0.63821  0.25342  1.0000
  C   C67       1.0  0.19152  0.61546  0.24972  1.0000
  C   C68       1.0  0.12773  0.56811  0.25425  1.0000
  C   C69       1.0  0.10394  0.55616  0.25573  1.0000
  C   C70       1.0  0.09170  0.54471  0.33405  1.0000
  C   C71       1.0  0.10455  0.54579  0.41074  1.0000
  C   C72       1.0  0.12833  0.55767  0.40930  1.0000
  H   H46       1.0  0.19773  0.65022  0.45984  1.0000
  H   H47       1.0  0.16964  0.61123  0.45527  1.0000
  H   H48       1.0  0.19078  0.60599  0.19524  1.0000
  H   H49       1.0  0.21974  0.64435  0.20084  1.0000
  H   H50       1.0  0.17502  0.56059  0.20303  1.0000
  H   H51       1.0  0.20478  0.55198  0.20819  1.0000
  H   H52       1.0  0.13593  0.57624  0.19665  1.0000
  H   H53       1.0  0.09560  0.55636  0.19896  1.0000
  H   H54       1.0  0.09666  0.53754  0.46863  1.0000
  H   H55       1.0  0.13697  0.55801  0.46594  1.0000
  H   H56       1.0  0.18608  0.57975  0.47533  1.0000
  H   H57       1.0  0.21559  0.57082  0.48214  1.0000
  N   N11       1.0  0.43054  0.58554  0.32901  1.0000
  C   C73       1.0  0.40657  0.57445  0.32387  1.0000
  C   C74       1.0  0.44259  0.57359  0.33095  1.0000
  C   C75       1.0  0.44147  0.60937  0.33952  1.0000
  C   C76       1.0  0.45010  0.62345  0.26336  1.0000
  C   C77       1.0  0.45506  0.64605  0.26665  1.0000
  C   C78       1.0  0.45131  0.65521  0.34592  1.0000
  C   C79       1.0  0.44378  0.64128  0.42334  1.0000
  C   C80       1.0  0.43892  0.61874  0.42021  1.0000
  C   C81       1.0  0.39317  0.56328  0.39946  1.0000
  C   C82       1.0  0.37029  0.55737  0.40246  1.0000
  C   C83       1.0  0.36002  0.56269  0.33082  1.0000
  C   C84       1.0  0.37342  0.57281  0.25333  1.0000
  C   C85       1.0  0.39618  0.57843  0.24963  1.0000
  C   C86       1.0  0.44353  0.56198  0.25417  1.0000
  C   C87       1.0  0.45547  0.55012  0.25569  1.0000
  C   C88       1.0  0.46690  0.54932  0.33404  1.0000
  C   C89       1.0  0.46581  0.56109  0.41073  1.0000
  C   C90       1.0  0.45393  0.57299  0.40927  1.0000
  H   H58       1.0  0.36141  0.54986  0.45970  1.0000
  H   H59       1.0  0.40040  0.56077  0.45515  1.0000
  H   H60       1.0  0.40564  0.58715  0.19515  1.0000
  H   H61       1.0  0.36728  0.57776  0.20074  1.0000
  H   H62       1.0  0.45107  0.61679  0.20306  1.0000
  H   H63       1.0  0.45970  0.65517  0.20823  1.0000
  H   H64       1.0  0.43541  0.56205  0.19654  1.0000
  H   H65       1.0  0.45528  0.54160  0.19890  1.0000
  H   H66       1.0  0.47404  0.56144  0.46866  1.0000
  H   H67       1.0  0.45358  0.58129  0.46592  1.0000
  H   H68       1.0  0.43187  0.60869  0.47533  1.0000
  H   H69       1.0  0.44081  0.64712  0.48213  1.0000
  N   N12       1.0  0.42609  0.84732  0.32902  1.0000
  C   C91       1.0  0.43718  0.83445  0.32387  1.0000
  C   C92       1.0  0.43803  0.87132  0.33095  1.0000
  C   C93       1.0  0.40225  0.83441  0.33955  1.0000
  C   C94       1.0  0.38818  0.82898  0.26339  1.0000
  C   C95       1.0  0.36560  0.81132  0.26669  1.0000
  C   C96       1.0  0.35643  0.79842  0.34601  1.0000
  C   C97       1.0  0.37037  0.80483  0.42341  1.0000
  C   C98       1.0  0.39291  0.82249  0.42027  1.0000
  C   C99       1.0  0.44838  0.83225  0.39943  1.0000
  C   C100      1.0  0.45431  0.81529  0.40242  1.0000
  C   C101      1.0  0.44898  0.79970  0.33079  1.0000
  C   C102      1.0  0.43884  0.80296  0.25331  1.0000
  C   C103      1.0  0.43320  0.82008  0.24960  1.0000
  C   C104      1.0  0.44964  0.88387  0.25415  1.0000
  C   C105      1.0  0.46149  0.90766  0.25566  1.0000
  C   C106      1.0  0.46230  0.91990  0.33401  1.0000
  C   C107      1.0  0.45054  0.90704  0.41072  1.0000
  C   C108      1.0  0.43863  0.88326  0.40926  1.0000
  H   H70       1.0  0.46183  0.81393  0.45964  1.0000
  H   H71       1.0  0.45090  0.84200  0.45511  1.0000
  H   H72       1.0  0.42447  0.82081  0.19515  1.0000
  H   H73       1.0  0.43389  0.79187  0.20074  1.0000
  H   H74       1.0  0.39483  0.83663  0.20311  1.0000
  H   H75       1.0  0.35644  0.80687  0.20835  1.0000
  H   H76       1.0  0.44956  0.87567  0.19653  1.0000
  H   H77       1.0  0.47002  0.91600  0.19887  1.0000
  H   H78       1.0  0.45019  0.91493  0.46864  1.0000
  H   H79       1.0  0.43034  0.87462  0.46592  1.0000
  H   H80       1.0  0.40297  0.82550  0.47536  1.0000
  H   H81       1.0  0.36453  0.79601  0.48222  1.0000
  N   N13       1.0  0.84964  0.42540  0.32937  1.0000
  C   C109      1.0  0.83638  0.40147  0.32357  1.0000
  C   C110      1.0  0.87364  0.43705  0.32889  1.0000
  C   C111      1.0  0.83715  0.43676  0.33975  1.0000
  C   C112      1.0  0.83201  0.44568  0.26368  1.0000
  C   C113      1.0  0.81462  0.45099  0.26694  1.0000
  C   C114      1.0  0.80171  0.44739  0.34613  1.0000
  C   C115      1.0  0.80787  0.43962  0.42352  1.0000
  C   C116      1.0  0.82527  0.43436  0.42041  1.0000
  C   C117      1.0  0.83388  0.38794  0.39905  1.0000
  C   C118      1.0  0.81655  0.36521  0.40201  1.0000
  C   C119      1.0  0.80090  0.35525  0.33039  1.0000
  C   C120      1.0  0.80445  0.36873  0.25294  1.0000
  C   C121      1.0  0.82194  0.39134  0.24928  1.0000
  C   C122      1.0  0.88561  0.43788  0.25038  1.0000
  C   C123      1.0  0.90939  0.44957  0.24942  1.0000
  C   C124      1.0  0.92220  0.46080  0.32697  1.0000
  C   C125      1.0  0.90994  0.45970  0.40563  1.0000
  C   C126      1.0  0.88615  0.44812  0.40656  1.0000
  H   H82       1.0  0.81495  0.35626  0.45927  1.0000
  H   H83       1.0  0.84366  0.39503  0.45480  1.0000
  H   H84       1.0  0.82287  0.40094  0.19501  1.0000
  H   H85       1.0  0.79333  0.36280  0.20041  1.0000
  H   H86       1.0  0.83963  0.44656  0.20343  1.0000
  H   H87       1.0  0.81034  0.45587  0.20863  1.0000
  H   H88       1.0  0.87698  0.42997  0.19315  1.0000
  H   H89       1.0  0.91731  0.44946  0.19124  1.0000
  H   H90       1.0  0.91827  0.46783  0.46306  1.0000
  H   H91       1.0  0.87793  0.44783  0.46441  1.0000
  H   H92       1.0  0.82806  0.42712  0.47543  1.0000
  H   H93       1.0  0.79902  0.43670  0.48219  1.0000
  N   N14       1.0  0.58619  0.42657  0.32943  1.0000
  C   C127      1.0  0.61012  0.43723  0.32359  1.0000
  C   C128      1.0  0.57454  0.43891  0.32895  1.0000
  C   C129      1.0  0.57483  0.40272  0.33973  1.0000
  C   C130      1.0  0.56591  0.38864  0.26369  1.0000
  C   C131      1.0  0.56060  0.36594  0.26693  1.0000
  C   C132      1.0  0.56421  0.35664  0.34611  1.0000
  C   C133      1.0  0.57199  0.37057  0.42348  1.0000
  C   C134      1.0  0.57724  0.39323  0.42038  1.0000
  C   C135      1.0  0.62365  0.44828  0.39903  1.0000
  C   C136      1.0  0.64638  0.45366  0.40199  1.0000
  C   C137      1.0  0.65634  0.44797  0.33035  1.0000
  C   C138      1.0  0.64285  0.43805  0.25291  1.0000
  C   C139      1.0  0.62024  0.43292  0.24928  1.0000
  C   C140      1.0  0.57371  0.45004  0.25044  1.0000
  C   C141      1.0  0.56202  0.46215  0.24949  1.0000
  C   C142      1.0  0.55078  0.46371  0.32703  1.0000
  C   C143      1.0  0.55189  0.45256  0.40570  1.0000
  C   C144      1.0  0.56347  0.44035  0.40663  1.0000
  H   H94       1.0  0.65533  0.46100  0.45927  1.0000
  H   H95       1.0  0.61657  0.45094  0.45487  1.0000
  H   H96       1.0  0.61063  0.42424  0.19503  1.0000
  H   H97       1.0  0.64878  0.43286  0.20037  1.0000
  H   H98       1.0  0.56502  0.39538  0.20345  1.0000
  H   H99       1.0  0.55571  0.35678  0.20863  1.0000
  H   H100      1.0  0.58161  0.44932  0.19321  1.0000
  H   H101      1.0  0.56212  0.47016  0.19129  1.0000
  H   H102      1.0  0.54376  0.45276  0.46311  1.0000
  H   H103      1.0  0.56375  0.43241  0.46447  1.0000
  H   H104      1.0  0.58447  0.40325  0.47541  1.0000
  H   H105      1.0  0.57490  0.36463  0.48217  1.0000
  N   N15       1.0  0.58503  0.16194  0.32942  1.0000
  C   C145      1.0  0.57437  0.17520  0.32353  1.0000
  C   C146      1.0  0.57269  0.13795  0.32894  1.0000
  C   C147      1.0  0.60888  0.17444  0.33985  1.0000
  C   C148      1.0  0.62295  0.17954  0.26384  1.0000
  C   C149      1.0  0.64565  0.19695  0.26710  1.0000
  C   C150      1.0  0.65495  0.20988  0.34626  1.0000
  C   C151      1.0  0.64100  0.20375  0.42358  1.0000
  C   C152      1.0  0.61835  0.18632  0.42052  1.0000
  C   C153      1.0  0.56329  0.17768  0.39892  1.0000
  C   C154      1.0  0.55791  0.19502  0.40186  1.0000
  C   C155      1.0  0.56363  0.21069  0.33025  1.0000
  C   C156      1.0  0.57357  0.20713  0.25284  1.0000
  C   C157      1.0  0.57870  0.18965  0.24925  1.0000
  C   C158      1.0  0.56158  0.12598  0.25041  1.0000
  C   C159      1.0  0.54948  0.10219  0.24945  1.0000
  C   C160      1.0  0.54790  0.08939  0.32701  1.0000
  C   C161      1.0  0.55904  0.10165  0.40569  1.0000
  C   C162      1.0  0.57124  0.12544  0.40664  1.0000
  H   H106      1.0  0.55056  0.19664  0.45912  1.0000
  H   H107      1.0  0.56062  0.16792  0.45475  1.0000
  H   H108      1.0  0.58739  0.18873  0.19505  1.0000
  H   H109      1.0  0.57878  0.21827  0.20038  1.0000
  H   H110      1.0  0.61621  0.17194  0.20359  1.0000
  H   H111      1.0  0.65482  0.20122  0.20881  1.0000
  H   H112      1.0  0.56231  0.13460  0.19316  1.0000
  H   H113      1.0  0.54148  0.09427  0.19123  1.0000
  H   H114      1.0  0.55882  0.09332  0.46314  1.0000
  H   H115      1.0  0.57916  0.13366  0.46450  1.0000
  H   H116      1.0  0.60830  0.18355  0.47545  1.0000
  H   H117      1.0  0.64693  0.21260  0.48227  1.0000
  C   C163      1.0  0.06737  0.53276  0.33585  1.0000
  C   C164      1.0  0.01901  0.50956  0.33562  1.0000
  C   C165      1.0  0.03110  0.52192  0.41336  1.0000
  C   C166      1.0  0.05505  0.53329  0.41149  1.0000
  H   H118      1.0  0.06378  0.54274  0.46602  1.0000
  C   C167      1.0  0.95947  0.47245  0.39860  1.0000
  N   N16       1.0  0.98233  0.48437  0.39594  1.0000
  H   H119      1.0  0.95192  0.46288  0.45429  1.0000
  C   C168      1.0  0.01957  0.52413  0.49436  1.0000
  H   H120      1.0  0.00998  0.50782  0.52752  1.0000
  H   H121      1.0  0.00815  0.53016  0.47485  1.0000
  H   H122      1.0  0.03136  0.53594  0.54373  1.0000
  C   C169      1.0  0.47885  0.53694  0.33585  1.0000
  C   C170      1.0  0.50203  0.51177  0.33566  1.0000
  C   C171      1.0  0.48965  0.51149  0.41336  1.0000
  C   C172      1.0  0.47829  0.52407  0.41148  1.0000
  H   H123      1.0  0.46883  0.52335  0.46599  1.0000
  C   C173      1.0  0.53913  0.48933  0.39866  1.0000
  N   N17       1.0  0.52722  0.50028  0.39599  1.0000
  H   H124      1.0  0.54870  0.49135  0.45436  1.0000
  C   C174      1.0  0.48743  0.49774  0.49434  1.0000
  H   H125      1.0  0.50373  0.50445  0.52754  1.0000
  H   H126      1.0  0.48139  0.48028  0.47478  1.0000
  H   H127      1.0  0.47561  0.49770  0.54368  1.0000
  C   C175      1.0  0.47469  0.94423  0.33582  1.0000
  C   C176      1.0  0.49985  0.99258  0.33563  1.0000
  C   C177      1.0  0.50014  0.98048  0.41333  1.0000
  C   C178      1.0  0.48756  0.95654  0.41145  1.0000
  H   H128      1.0  0.48828  0.94780  0.46595  1.0000
  C   C179      1.0  0.52227  0.05212  0.39860  1.0000
  N   N18       1.0  0.51132  0.02925  0.39594  1.0000
  H   H129      1.0  0.52024  0.05967  0.45427  1.0000
  C   C180      1.0  0.51390  0.99201  0.49429  1.0000
  H   H130      1.0  0.50719  0.00161  0.52750  1.0000
  H   H131      1.0  0.53135  0.00343  0.47471  1.0000
  H   H132      1.0  0.51393  0.98023  0.54363  1.0000
  C   C181      1.0  0.25330  0.57495  0.38578  1.0000
  N   N19       1.0  0.27205  0.57309  0.38345  1.0000
  C   C182      1.0  0.29460  0.55664  0.34926  1.0000
  C   C183      1.0  0.30804  0.56159  0.42830  1.0000
  C   C184      1.0  0.32938  0.56306  0.42087  1.0000
  C   C185      1.0  0.33770  0.55968  0.33846  1.0000
  H   H133      1.0  0.33942  0.56749  0.47672  1.0000
  H   H134      1.0  0.25441  0.58895  0.41524  1.0000
  C   C186      1.0  0.30021  0.56454  0.51805  1.0000
  H   H135      1.0  0.28350  0.55028  0.53229  1.0000
  H   H136      1.0  0.29943  0.58004  0.51916  1.0000
  H   H137      1.0  0.31138  0.56554  0.57249  1.0000
  C   C187      1.0  0.43671  0.68072  0.38578  1.0000
  N   N20       1.0  0.43859  0.70134  0.38345  1.0000
  C   C188      1.0  0.45504  0.74033  0.34926  1.0000
  C   C189      1.0  0.45010  0.74883  0.42830  1.0000
  C   C190      1.0  0.44862  0.76870  0.42087  1.0000
  C   C191      1.0  0.45200  0.78038  0.33844  1.0000
  H   H138      1.0  0.44420  0.77432  0.47671  1.0000
  H   H139      1.0  0.42271  0.66783  0.41522  1.0000
  C   C192      1.0  0.44715  0.73805  0.51806  1.0000
  H   H140      1.0  0.46141  0.73561  0.53230  1.0000
  H   H141      1.0  0.43165  0.72177  0.51919  1.0000
  H   H142      1.0  0.44614  0.74821  0.57250  1.0000
  C   C193      1.0  0.33093  0.75832  0.38587  1.0000
  N   N21       1.0  0.31030  0.73957  0.38354  1.0000
  C   C194      1.0  0.27131  0.71703  0.34940  1.0000
  C   C195      1.0  0.26283  0.70358  0.42842  1.0000
  C   C196      1.0  0.24296  0.68224  0.42099  1.0000
  C   C197      1.0  0.23126  0.67393  0.33857  1.0000
  H   H143      1.0  0.23734  0.67219  0.47682  1.0000
  H   H144      1.0  0.34382  0.75720  0.41526  1.0000
  C   C198      1.0  0.27361  0.71140  0.51817  1.0000
  H   H145      1.0  0.27606  0.72811  0.53245  1.0000
  H   H146      1.0  0.28990  0.71218  0.51924  1.0000
  H   H147      1.0  0.26346  0.70023  0.57260  1.0000
  C   C199      1.0  0.76165  0.43324  0.38509  1.0000
  N   N22       1.0  0.74309  0.43545  0.38267  1.0000
  C   C200      1.0  0.72109  0.45252  0.34899  1.0000
  C   C201      1.0  0.70757  0.44760  0.42782  1.0000
  C   C202      1.0  0.68646  0.44661  0.42033  1.0000
  C   C203      1.0  0.67843  0.45042  0.33804  1.0000
  H   H148      1.0  0.67636  0.44224  0.47599  1.0000
  H   H149      1.0  0.76027  0.41907  0.41402  1.0000
  C   C204      1.0  0.71512  0.44420  0.51744  1.0000
  H   H150      1.0  0.73193  0.45821  0.53237  1.0000
  H   H151      1.0  0.71557  0.42851  0.51784  1.0000
  H   H152      1.0  0.70396  0.44325  0.57182  1.0000
  C   C205      1.0  0.57834  0.33071  0.38510  1.0000
  N   N23       1.0  0.57613  0.30995  0.38266  1.0000
  C   C206      1.0  0.55906  0.27087  0.34894  1.0000
  C   C207      1.0  0.56397  0.26227  0.42777  1.0000
  C   C208      1.0  0.56496  0.24215  0.42027  1.0000
  C   C209      1.0  0.56118  0.23033  0.33794  1.0000
  H   H153      1.0  0.56932  0.23641  0.47594  1.0000
  H   H154      1.0  0.59251  0.34349  0.41404  1.0000
  C   C210      1.0  0.56735  0.27321  0.51742  1.0000
  H   H155      1.0  0.55332  0.27599  0.53229  1.0000
  H   H156      1.0  0.58303  0.28934  0.51788  1.0000
  H   H157      1.0  0.56828  0.26299  0.57178  1.0000
  C   C211      1.0  0.68086  0.24995  0.38513  1.0000
  N   N24       1.0  0.70163  0.26851  0.38270  1.0000
  C   C212      1.0  0.74070  0.29050  0.34907  1.0000
  C   C213      1.0  0.74929  0.30402  0.42788  1.0000
  C   C214      1.0  0.76942  0.32513  0.42038  1.0000
  C   C215      1.0  0.78126  0.33315  0.33809  1.0000
  H   H158      1.0  0.77516  0.33524  0.47603  1.0000
  H   H159      1.0  0.66807  0.25134  0.41400  1.0000
  C   C216      1.0  0.73835  0.29647  0.51751  1.0000
  H   H160      1.0  0.73556  0.27967  0.53245  1.0000
  H   H161      1.0  0.72221  0.29602  0.51789  1.0000
  H   H162      1.0  0.74855  0.30764  0.57187  1.0000
