data_image0
_chemical_formula_structural       CNCHNHCNCHNHCNCHNHC24H15C24H15C4HC6HOHOHC4HC6HOHOHC4HC6HOHOH
_chemical_formula_sum              "C84 N6 H48 O6"
_cell_length_a       37.1253
_cell_length_b       37.1254
_cell_length_c       14.8862
_cell_angle_alpha    90
_cell_angle_beta     90
_cell_angle_gamma    120

_space_group_name_H-M_alt    "P 1"
_space_group_IT_number       1

loop_
  _space_group_symop_operation_xyz
  'x, y, z'

loop_
  _atom_site_type_symbol
  _atom_site_label
  _atom_site_symmetry_multiplicity
  _atom_site_fract_x
  _atom_site_fract_y
  _atom_site_fract_z
  _atom_site_occupancy
  C   C1        1.0  0.54288  0.45539  0.26374  1.0000
  N   N1        1.0  0.52188  0.47654  0.26806  1.0000
  C   C2        1.0  0.45699  0.54123  0.26421  1.0000
  H   H1        1.0  0.54655  0.44548  0.20218  1.0000
  N   N2        1.0  0.47814  0.52022  0.26831  1.0000
  H   H2        1.0  0.44701  0.54490  0.20275  1.0000
  C   C3        1.0  0.54998  0.08939  0.26528  1.0000
  N   N3        1.0  0.52877  0.04724  0.26964  1.0000
  C   C4        1.0  0.46362  0.91779  0.26541  1.0000
  H   H3        1.0  0.55775  0.10300  0.20331  1.0000
  N   N4        1.0  0.48480  0.95994  0.26969  1.0000
  H   H4        1.0  0.45849  0.90403  0.20369  1.0000
  C   C5        1.0  0.91999  0.46581  0.26894  1.0000
  N   N5        1.0  0.96212  0.48691  0.27375  1.0000
  C   C6        1.0  0.09149  0.55228  0.27079  1.0000
  H   H5        1.0  0.90659  0.46201  0.20715  1.0000
  N   N6        1.0  0.04934  0.53089  0.27470  1.0000
  H   H6        1.0  0.10515  0.56209  0.20929  1.0000
  C   C7        1.0  0.29453  0.64876  0.34018  1.0000
  C   C8        1.0  0.31730  0.62747  0.33918  1.0000
  C   C9        1.0  0.36134  0.64869  0.33798  1.0000
  C   C10       1.0  0.38262  0.69273  0.33764  1.0000
  C   C11       1.0  0.36130  0.71541  0.33865  1.0000
  C   C12       1.0  0.31730  0.69280  0.33982  1.0000
  C   C13       1.0  0.38371  0.62640  0.33796  1.0000
  C   C14       1.0  0.37069  0.59028  0.28497  1.0000
  C   C15       1.0  0.39251  0.56829  0.28589  1.0000
  C   C16       1.0  0.42834  0.58142  0.33993  1.0000
  C   C17       1.0  0.44148  0.61769  0.39249  1.0000
  C   C18       1.0  0.41964  0.63962  0.39168  1.0000
  C   C19       1.0  0.24990  0.62650  0.34234  1.0000
  C   C20       1.0  0.22755  0.59099  0.39742  1.0000
  C   C21       1.0  0.18378  0.56911  0.39943  1.0000
  C   C22       1.0  0.16031  0.58175  0.34660  1.0000
  C   C23       1.0  0.18267  0.61725  0.29148  1.0000
  C   C24       1.0  0.22646  0.63914  0.28941  1.0000
  C   C25       1.0  0.38363  0.75991  0.33945  1.0000
  C   C26       1.0  0.37265  0.78303  0.28124  1.0000
  C   C27       1.0  0.39472  0.82684  0.28211  1.0000
  C   C28       1.0  0.42825  0.84919  0.34213  1.0000
  C   C29       1.0  0.43913  0.82605  0.40053  1.0000
  C   C30       1.0  0.41741  0.78228  0.39885  1.0000
  H   H7        1.0  0.16920  0.54328  0.43936  1.0000
  H   H8        1.0  0.24296  0.58092  0.43803  1.0000
  H   H9        1.0  0.16726  0.62807  0.25300  1.0000
  H   H10       1.0  0.24110  0.66426  0.24754  1.0000
  H   H11       1.0  0.34869  0.76812  0.23657  1.0000
  H   H12       1.0  0.38544  0.84230  0.23954  1.0000
  H   H13       1.0  0.42608  0.76685  0.44297  1.0000
  H   H14       1.0  0.46345  0.84091  0.44436  1.0000
  H   H15       1.0  0.43001  0.66513  0.43234  1.0000
  H   H16       1.0  0.46753  0.62892  0.43169  1.0000
  H   H17       1.0  0.38135  0.54196  0.24763  1.0000
  H   H18       1.0  0.34525  0.57974  0.24404  1.0000
  H   H19       1.0  0.30138  0.59564  0.33965  1.0000
  H   H20       1.0  0.30156  0.70885  0.34379  1.0000
  H   H21       1.0  0.41442  0.70874  0.33397  1.0000
  C   C31       1.0  0.71661  0.35886  0.33671  1.0000
  C   C32       1.0  0.69401  0.38031  0.33624  1.0000
  C   C33       1.0  0.64996  0.35924  0.33612  1.0000
  C   C34       1.0  0.62852  0.31521  0.33658  1.0000
  C   C35       1.0  0.64962  0.29229  0.33679  1.0000
  C   C36       1.0  0.69365  0.31482  0.33668  1.0000
  C   C37       1.0  0.62780  0.38172  0.33658  1.0000
  C   C38       1.0  0.64087  0.41736  0.39115  1.0000
  C   C39       1.0  0.61902  0.43929  0.39221  1.0000
  C   C40       1.0  0.58295  0.42651  0.33911  1.0000
  C   C41       1.0  0.56998  0.39096  0.28421  1.0000
  C   C42       1.0  0.59191  0.36907  0.28298  1.0000
  C   C43       1.0  0.76125  0.38103  0.33832  1.0000
  C   C44       1.0  0.78478  0.41695  0.28500  1.0000
  C   C45       1.0  0.82857  0.43891  0.28746  1.0000
  C   C46       1.0  0.85086  0.42597  0.34340  1.0000
  C   C47       1.0  0.82730  0.38993  0.39639  1.0000
  C   C48       1.0  0.78354  0.36803  0.39405  1.0000
  C   C49       1.0  0.62712  0.24772  0.33806  1.0000
  C   C50       1.0  0.63869  0.22429  0.28223  1.0000
  C   C51       1.0  0.61655  0.18049  0.28372  1.0000
  C   C52       1.0  0.58204  0.15823  0.34148  1.0000
  C   C53       1.0  0.57049  0.18169  0.39727  1.0000
  C   C54       1.0  0.59250  0.22546  0.39553  1.0000
  H   H22       1.0  0.84402  0.46509  0.24887  1.0000
  H   H23       1.0  0.77021  0.42734  0.24268  1.0000
  H   H24       1.0  0.84182  0.37883  0.43693  1.0000
  H   H25       1.0  0.76806  0.34268  0.43502  1.0000
  H   H26       1.0  0.66317  0.23895  0.23872  1.0000
  H   H27       1.0  0.62650  0.16497  0.24305  1.0000
  H   H28       1.0  0.58330  0.24096  0.43814  1.0000
  H   H29       1.0  0.54542  0.16709  0.43930  1.0000
  H   H30       1.0  0.58149  0.34387  0.24139  1.0000
  H   H31       1.0  0.54380  0.38003  0.24554  1.0000
  H   H32       1.0  0.63017  0.46515  0.43199  1.0000
  H   H33       1.0  0.66620  0.42746  0.43225  1.0000
  H   H34       1.0  0.71006  0.41213  0.33636  1.0000
  H   H35       1.0  0.70937  0.29871  0.33700  1.0000
  H   H36       1.0  0.59668  0.29939  0.33705  1.0000
  C   C55       1.0  0.56028  0.44844  0.34189  1.0000
  C   C56       1.0  0.51578  0.49211  0.34558  1.0000
  C   C57       1.0  0.53219  0.48627  0.42696  1.0000
  C   C58       1.0  0.55420  0.46431  0.42352  1.0000
  H   H37       1.0  0.56538  0.45911  0.48195  1.0000
  C   C59       1.0  0.49380  0.51411  0.34569  1.0000
  C   C60       1.0  0.45021  0.55868  0.34247  1.0000
  C   C61       1.0  0.46615  0.55259  0.42397  1.0000
  C   C62       1.0  0.48806  0.53051  0.42718  1.0000
  C   C63       1.0  0.50425  0.52443  0.50827  1.0000
  C   C64       1.0  0.52617  0.50243  0.50817  1.0000
  H   H38       1.0  0.46107  0.56383  0.48245  1.0000
  O   O1        1.0  0.50040  0.54084  0.58714  1.0000
  H   H39       1.0  0.47450  0.51932  0.61501  1.0000
  O   O2        1.0  0.54260  0.49851  0.58693  1.0000
  H   H40       1.0  0.52102  0.47268  0.61492  1.0000
  C   C65       1.0  0.55990  0.11369  0.34433  1.0000
  C   C66       1.0  0.51605  0.02560  0.34796  1.0000
  C   C67       1.0  0.52506  0.04785  0.43024  1.0000
  C   C68       1.0  0.54692  0.09183  0.42680  1.0000
  H   H41       1.0  0.55432  0.10830  0.48558  1.0000
  C   C69       1.0  0.49405  0.98163  0.34802  1.0000
  C   C70       1.0  0.45010  0.89364  0.34472  1.0000
  C   C71       1.0  0.45923  0.91545  0.42721  1.0000
  C   C72       1.0  0.48108  0.95944  0.43043  1.0000
  C   C73       1.0  0.49031  0.98171  0.51238  1.0000
  C   C74       1.0  0.51211  0.02564  0.51227  1.0000
  H   H42       1.0  0.44921  0.89893  0.48582  1.0000
  O   O3        1.0  0.47740  0.96142  0.59244  1.0000
  H   H43       1.0  0.50013  0.95730  0.61394  1.0000
  O   O4        1.0  0.51919  0.04598  0.59220  1.0000
  H   H44       1.0  0.54607  0.05032  0.61409  1.0000
  C   C75       1.0  0.89546  0.44859  0.34693  1.0000
  C   C76       1.0  0.98360  0.49323  0.35161  1.0000
  C   C77       1.0  0.96120  0.47695  0.43286  1.0000
  C   C78       1.0  0.91722  0.45482  0.42892  1.0000
  H   H45       1.0  0.90069  0.44373  0.48721  1.0000
  C   C79       1.0  0.02755  0.51539  0.35208  1.0000
  C   C80       1.0  0.11570  0.55954  0.34928  1.0000
  C   C81       1.0  0.09363  0.54366  0.43081  1.0000
  C   C82       1.0  0.04963  0.52150  0.43381  1.0000
  C   C83       1.0  0.02722  0.50540  0.51481  1.0000
  C   C84       1.0  0.98328  0.48328  0.51435  1.0000
  H   H46       1.0  0.10993  0.54902  0.48941  1.0000
  O   O5        1.0  0.04739  0.50958  0.59396  1.0000
  H   H47       1.0  0.05137  0.53539  0.62156  1.0000
  O   O6        1.0  0.96282  0.46701  0.59306  1.0000
  H   H48       1.0  0.95838  0.48859  0.62044  1.0000
