data_image0
_chemical_formula_structural       C3NC3NC5NC5NC20H18N4C2NCH3CHC2NCH3CHC8H8C2NHCHC2NHCH
_chemical_formula_sum              "C58 N12 H38"
_cell_length_a       25.6355
_cell_length_b       25.6335
_cell_length_c       14.6951
_cell_angle_alpha    90
_cell_angle_beta     90
_cell_angle_gamma    89.97

_space_group_name_H-M_alt    "P 1"
_space_group_IT_number       1

loop_
  _space_group_symop_operation_xyz
  'x, y, z'

loop_
  _atom_site_type_symbol
  _atom_site_label
  _atom_site_symmetry_multiplicity
  _atom_site_fract_x
  _atom_site_fract_y
  _atom_site_fract_z
  _atom_site_occupancy
  C   C1        1.0  0.91196  0.14544  0.33988  1.0000
  C   C2        1.0  0.87349  0.10774  0.34040  1.0000
  C   C3        1.0  0.89741  0.05874  0.34028  1.0000
  N   N1        1.0  0.94944  0.06874  0.34047  1.0000
  C   C4        1.0  0.96049  0.12056  0.34045  1.0000
  C   C5        1.0  0.00963  0.14664  0.34032  1.0000
  C   C6        1.0  0.05879  0.12080  0.33904  1.0000
  N   N2        1.0  0.06850  0.06887  0.33827  1.0000
  C   C7        1.0  0.12022  0.05810  0.33710  1.0000
  C   C8        1.0  0.14533  0.10645  0.33672  1.0000
  C   C9        1.0  0.10763  0.14494  0.33862  1.0000
  C   C10       1.0  0.14504  0.00841  0.33587  1.0000
  C   C11       1.0  0.11790  0.95984  0.33552  1.0000
  N   N3        1.0  0.06587  0.94986  0.33598  1.0000
  C   C12       1.0  0.05476  0.89805  0.33564  1.0000
  C   C13       1.0  0.10325  0.87312  0.33457  1.0000
  C   C14       1.0  0.14174  0.91078  0.33521  1.0000
  C   C15       1.0  0.00561  0.87200  0.33567  1.0000
  C   C16       1.0  0.95650  0.89786  0.33681  1.0000
  N   N4        1.0  0.94686  0.94978  0.33815  1.0000
  C   C17       1.0  0.89516  0.96050  0.33945  1.0000
  C   C18       1.0  0.86998  0.91219  0.33858  1.0000
  C   C19       1.0  0.90766  0.87370  0.33757  1.0000
  C   C20       1.0  0.87035  0.01015  0.34054  1.0000
  C   C21       1.0  0.81446  0.01104  0.34087  1.0000
  C   C22       1.0  0.70273  0.01085  0.34044  1.0000
  C   C23       1.0  0.73137  0.02100  0.25985  1.0000
  C   C24       1.0  0.78634  0.02085  0.25995  1.0000
  C   C25       1.0  0.00533  0.81610  0.33413  1.0000
  C   C26       1.0  0.00414  0.70450  0.33065  1.0000
  C   C27       1.0  0.99333  0.73381  0.25146  1.0000
  C   C28       1.0  0.99417  0.78877  0.25287  1.0000
  C   C29       1.0  0.20096  0.00729  0.33433  1.0000
  C   C30       1.0  0.22818  0.99598  0.25300  1.0000
  C   C31       1.0  0.28314  0.99482  0.25140  1.0000
  C   C32       1.0  0.31259  0.00554  0.33043  1.0000
  C   C33       1.0  0.00964  0.20257  0.34053  1.0000
  C   C34       1.0  0.01942  0.23080  0.25971  1.0000
  C   C35       1.0  0.00889  0.31437  0.34026  1.0000
  C   C36       1.0  0.01928  0.28578  0.25967  1.0000
  H   H1        1.0  0.02708  0.30459  0.19995  1.0000
  H   H2        1.0  0.02693  0.21143  0.20021  1.0000
  H   H3        1.0  0.90485  0.18467  0.33926  1.0000
  H   H4        1.0  0.83441  0.11561  0.34057  1.0000
  H   H5        1.0  0.97569  0.04198  0.34113  1.0000
  H   H6        1.0  0.03965  0.97666  0.33611  1.0000
  H   H7        1.0  0.11528  0.18406  0.33913  1.0000
  H   H8        1.0  0.18459  0.11332  0.33549  1.0000
  H   H9        1.0  0.20809  0.98856  0.19419  1.0000
  H   H10       1.0  0.30162  0.98685  0.19121  1.0000
  H   H11       1.0  0.18081  0.90283  0.33532  1.0000
  H   H12       1.0  0.11030  0.83388  0.33383  1.0000
  H   H13       1.0  0.83072  0.90533  0.33881  1.0000
  H   H14       1.0  0.89997  0.83459  0.33734  1.0000
  H   H15       1.0  0.98653  0.80877  0.19406  1.0000
  H   H16       1.0  0.98538  0.71522  0.19138  1.0000
  H   H17       1.0  0.80578  0.02805  0.20040  1.0000
  H   H18       1.0  0.71261  0.02875  0.20005  1.0000
  N   N5        1.0  0.00414  0.65257  0.32249  1.0000
  N   N6        1.0  0.36453  0.00536  0.32209  1.0000
  N   N7        1.0  0.00876  0.36657  0.34605  1.0000
  N   N8        1.0  0.65054  0.01073  0.34607  1.0000
  C   C37       1.0  0.03146  0.54298  0.25882  1.0000
  C   C38       1.0  0.01299  0.45554  0.30818  1.0000
  N   N9        1.0  0.02803  0.49065  0.24416  1.0000
  C   C39       1.0  0.05170  0.57335  0.18062  1.0000
  H   H19       1.0  0.06008  0.61385  0.19704  1.0000
  H   H20       1.0  0.02323  0.57246  0.12544  1.0000
  H   H21       1.0  0.08798  0.55583  0.15647  1.0000
  C   C40       1.0  0.01242  0.40305  0.28607  1.0000
  H   H22       1.0  0.01638  0.39358  0.22090  1.0000
  C   C41       1.0  0.47419  0.03209  0.25770  1.0000
  C   C42       1.0  0.56164  0.01427  0.30777  1.0000
  N   N10       1.0  0.52653  0.02859  0.24322  1.0000
  C   C43       1.0  0.44382  0.05144  0.17881  1.0000
  H   H23       1.0  0.40328  0.05987  0.19485  1.0000
  H   H24       1.0  0.44487  0.02241  0.12451  1.0000
  H   H25       1.0  0.46122  0.08752  0.15358  1.0000
  C   C44       1.0  0.61413  0.01356  0.28582  1.0000
  H   H26       1.0  0.62367  0.01662  0.22052  1.0000
  C   C45       1.0  0.78608  0.00129  0.42160  1.0000
  C   C46       1.0  0.73108  0.00124  0.42118  1.0000
  C   C47       1.0  0.01548  0.78693  0.41388  1.0000
  C   C48       1.0  0.01510  0.73193  0.41209  1.0000
  C   C49       1.0  0.28531  0.01660  0.41197  1.0000
  C   C50       1.0  0.23031  0.01727  0.41395  1.0000
  C   C51       1.0  0.99956  0.23090  0.42121  1.0000
  C   C52       1.0  0.99921  0.28592  0.42086  1.0000
  H   H27       1.0  0.99183  0.30522  0.48049  1.0000
  H   H28       1.0  0.99236  0.21160  0.48087  1.0000
  H   H29       1.0  0.21173  0.02539  0.47397  1.0000
  H   H30       1.0  0.30520  0.02413  0.47078  1.0000
  H   H31       1.0  0.02341  0.80562  0.47385  1.0000
  H   H32       1.0  0.02270  0.71213  0.47099  1.0000
  H   H33       1.0  0.71172  0.99398  0.48079  1.0000
  H   H34       1.0  0.80534  0.99397  0.48126  1.0000
  C   C53       1.0  0.01817  0.56301  0.34626  1.0000
  C   C54       1.0  0.00282  0.52578  0.41231  1.0000
  N   N11       1.0  0.00078  0.47407  0.39213  1.0000
  H   H35       1.0  0.99331  0.53703  0.47703  1.0000
  C   C55       1.0  0.02220  0.61518  0.37182  1.0000
  H   H36       1.0  0.04027  0.62339  0.42991  1.0000
  C   C56       1.0  0.45413  0.01960  0.34547  1.0000
  C   C57       1.0  0.49136  0.00498  0.41205  1.0000
  N   N12       1.0  0.54309  0.00285  0.39204  1.0000
  H   H37       1.0  0.48010  0.99610  0.47702  1.0000
  C   C58       1.0  0.40194  0.02383  0.37088  1.0000
  H   H38       1.0  0.39371  0.04247  0.42843  1.0000
