data_image0
_chemical_formula_structural       H2C6NC2NC4NC3NC35H23C21H18C16H16CNC2O2HNC2O2HCNC2O2HCNC2O2HNC2O2HCNC2O2HC18H17C3NC3NC2NC5NC34H24C3NC3NC5NC5NC36H26NC3O2HCNC3O2HNC3O2HNC3O2HCNC3O2HNC3O2H
_chemical_formula_sum              "H138 C240 N24 O24"
_cell_length_a       58.5526
_cell_length_b       58.5526
_cell_length_c       14.9676
_cell_angle_alpha    89.7732
_cell_angle_beta     90.2268
_cell_angle_gamma    120

_space_group_name_H-M_alt    "P 1"
_space_group_IT_number       1

loop_
  _space_group_symop_operation_xyz
  'x, y, z'

loop_
  _atom_site_type_symbol
  _atom_site_label
  _atom_site_symmetry_multiplicity
  _atom_site_fract_x
  _atom_site_fract_y
  _atom_site_fract_z
  _atom_site_occupancy
  H   H1        1.0  0.00850  0.46585  0.33637  1.0000
  H   H2        1.0  0.00926  0.63881  0.33459  1.0000
  C   C1        1.0  0.01995  0.48593  0.33588  1.0000
  C   C2        1.0  0.01142  0.50437  0.33566  1.0000
  C   C3        1.0  0.01184  0.60302  0.33447  1.0000
  C   C4        1.0  0.02058  0.63002  0.33476  1.0000
  C   C5        1.0  0.04718  0.49946  0.33502  1.0000
  C   C6        1.0  0.05591  0.52646  0.33464  1.0000
  N   N1        1.0  0.03372  0.52828  0.33496  1.0000
  C   C7        1.0  0.98459  0.49808  0.33613  1.0000
  C   C8        1.0  0.97599  0.51686  0.33550  1.0000
  N   N2        1.0  0.99098  0.54344  0.33492  1.0000
  C   C9        1.0  0.97616  0.55521  0.33428  1.0000
  C   C10       1.0  0.94992  0.53483  0.33446  1.0000
  C   C11       1.0  0.94981  0.51121  0.33520  1.0000
  C   C12       1.0  0.98496  0.58264  0.33385  1.0000
  N   N3        1.0  0.03403  0.60120  0.33490  1.0000
  C   C13       1.0  0.05634  0.62512  0.33560  1.0000
  C   C14       1.0  0.04781  0.64355  0.33570  1.0000
  C   C15       1.0  0.08316  0.63141  0.33615  1.0000
  N   N4        1.0  0.07677  0.58605  0.33510  1.0000
  C   C16       1.0  0.09160  0.57428  0.33444  1.0000
  C   C17       1.0  0.11784  0.59467  0.33451  1.0000
  C   C18       1.0  0.11794  0.61828  0.33523  1.0000
  C   C19       1.0  0.08279  0.54685  0.33405  1.0000
  C   C20       1.0  0.10251  0.53936  0.33307  1.0000
  C   C21       1.0  0.11318  0.53711  0.25141  1.0000
  C   C22       1.0  0.13383  0.53138  0.25069  1.0000
  C   C23       1.0  0.14438  0.52771  0.33130  1.0000
  C   C24       1.0  0.16642  0.52348  0.33080  1.0000
  C   C25       1.0  0.21072  0.53560  0.27728  1.0000
  C   C26       1.0  0.18842  0.53872  0.27503  1.0000
  C   C27       1.0  0.10300  0.65855  0.33752  1.0000
  C   C28       1.0  0.11260  0.67282  0.25704  1.0000
  C   C29       1.0  0.13304  0.69930  0.25843  1.0000
  C   C30       1.0  0.14455  0.71221  0.34001  1.0000
  C   C31       1.0  0.16625  0.73865  0.34084  1.0000
  C   C32       1.0  0.16642  0.75851  0.28607  1.0000
  C   C33       1.0  0.18832  0.78424  0.28442  1.0000
  C   C34       1.0  0.21095  0.79100  0.33697  1.0000
  C   C35       1.0  0.96526  0.59015  0.33285  1.0000
  C   C36       1.0  0.92383  0.60245  0.33110  1.0000
  C   C37       1.0  0.93392  0.59839  0.25052  1.0000
  C   C38       1.0  0.95435  0.59235  0.25122  1.0000
  C   C39       1.0  0.90211  0.60718  0.33064  1.0000
  C   C40       1.0  0.87982  0.59212  0.27565  1.0000
  C   C41       1.0  0.85787  0.59581  0.27778  1.0000
  C   C42       1.0  0.85726  0.61455  0.33559  1.0000
  C   C43       1.0  0.96473  0.47094  0.33752  1.0000
  C   C44       1.0  0.95478  0.45686  0.25702  1.0000
  C   C45       1.0  0.93414  0.43048  0.25842  1.0000
  C   C46       1.0  0.92274  0.41748  0.34004  1.0000
  C   C47       1.0  0.90073  0.39120  0.34088  1.0000
  C   C48       1.0  0.85534  0.33931  0.33678  1.0000
  C   C49       1.0  0.87772  0.34576  0.28376  1.0000
  C   C50       1.0  0.89997  0.37128  0.28552  1.0000
  H   H3        1.0  0.87811  0.33188  0.24348  1.0000
  H   H4        1.0  0.91575  0.37512  0.24616  1.0000
  H   H5        1.0  0.92683  0.42117  0.19869  1.0000
  H   H6        1.0  0.96213  0.46590  0.19684  1.0000
  H   H7        1.0  0.05850  0.49068  0.33496  1.0000
  H   H8        1.0  0.03379  0.54471  0.33465  1.0000
  H   H9        1.0  0.03396  0.58477  0.33468  1.0000
  H   H10       1.0  0.93318  0.49304  0.33538  1.0000
  H   H11       1.0  0.93337  0.53652  0.33423  1.0000
  H   H12       1.0  0.96095  0.58919  0.19186  1.0000
  H   H13       1.0  0.92644  0.59979  0.19014  1.0000
  H   H14       1.0  0.05925  0.66364  0.33618  1.0000
  H   H15       1.0  0.13457  0.63646  0.33528  1.0000
  H   H16       1.0  0.10512  0.66388  0.19688  1.0000
  H   H17       1.0  0.14007  0.70878  0.19871  1.0000
  H   H18       1.0  0.18750  0.79806  0.24463  1.0000
  H   H19       1.0  0.15044  0.75446  0.24711  1.0000
  H   H20       1.0  0.18886  0.55302  0.23431  1.0000
  H   H21       1.0  0.22649  0.54763  0.23783  1.0000
  H   H22       1.0  0.14116  0.52999  0.19028  1.0000
  H   H23       1.0  0.10631  0.54008  0.19201  1.0000
  H   H24       1.0  0.87892  0.57759  0.23548  1.0000
  H   H25       1.0  0.84186  0.58392  0.23889  1.0000
  C   C51       1.0  0.54513  0.52002  0.33697  1.0000
  C   C52       1.0  0.56552  0.51416  0.33704  1.0000
  C   C53       1.0  0.58914  0.53768  0.33773  1.0000
  C   C54       1.0  0.56326  0.67532  0.25415  1.0000
  C   C55       1.0  0.56898  0.70170  0.25341  1.0000
  C   C56       1.0  0.56479  0.77433  0.27984  1.0000
  C   C57       1.0  0.56165  0.74890  0.27769  1.0000
  C   C58       1.0  0.42758  0.53896  0.25927  1.0000
  C   C59       1.0  0.40110  0.53292  0.26035  1.0000
  C   C60       1.0  0.34187  0.50702  0.28749  1.0000
  C   C61       1.0  0.31614  0.50320  0.28544  1.0000
  C   C62       1.0  0.30935  0.51901  0.33757  1.0000
  C   C63       1.0  0.50192  0.43477  0.25323  1.0000
  C   C64       1.0  0.50796  0.46124  0.25395  1.0000
  C   C65       1.0  0.50823  0.38691  0.27827  1.0000
  C   C66       1.0  0.50455  0.36127  0.28040  1.0000
  C   C67       1.0  0.64343  0.59718  0.25918  1.0000
  C   C68       1.0  0.66981  0.60290  0.26028  1.0000
  C   C69       1.0  0.76106  0.61515  0.33740  1.0000
  C   C70       1.0  0.75455  0.63118  0.28459  1.0000
  C   C71       1.0  0.72903  0.62790  0.28675  1.0000
  H   H26       1.0  0.76838  0.64552  0.24419  1.0000
  H   H27       1.0  0.72515  0.63992  0.24752  1.0000
  H   H28       1.0  0.67909  0.60506  0.20045  1.0000
  H   H29       1.0  0.63435  0.59562  0.19909  1.0000
  H   H30       1.0  0.60731  0.53921  0.33784  1.0000
  H   H31       1.0  0.51110  0.47112  0.19459  1.0000
  H   H32       1.0  0.50050  0.42601  0.19284  1.0000
  H   H33       1.0  0.46154  0.46953  0.33740  1.0000
  H   H34       1.0  0.43655  0.54047  0.19921  1.0000
  H   H35       1.0  0.39164  0.53050  0.20054  1.0000
  H   H36       1.0  0.30235  0.48861  0.24566  1.0000
  H   H37       1.0  0.34594  0.49512  0.24883  1.0000
  H   H38       1.0  0.54736  0.73513  0.23695  1.0000
  H   H39       1.0  0.55274  0.77814  0.24044  1.0000
  H   H40       1.0  0.57037  0.71054  0.19300  1.0000
  H   H41       1.0  0.56026  0.66559  0.19477  1.0000
  H   H42       1.0  0.52273  0.40062  0.23800  1.0000
  H   H43       1.0  0.51644  0.35724  0.24140  1.0000
  C   C72       1.0  0.42516  0.98725  0.25530  1.0000
  C   C73       1.0  0.39878  0.96660  0.25406  1.0000
  C   C74       1.0  0.32610  0.88971  0.27903  1.0000
  C   C75       1.0  0.35154  0.91200  0.27736  1.0000
  C   C76       1.0  0.56141  0.98785  0.26170  1.0000
  C   C77       1.0  0.56747  0.96742  0.26285  1.0000
  C   C78       1.0  0.59337  0.93404  0.29010  1.0000
  C   C79       1.0  0.59720  0.91214  0.28807  1.0000
  C   C80       1.0  0.66545  0.16629  0.25384  1.0000
  C   C81       1.0  0.63897  0.14586  0.25509  1.0000
  C   C82       1.0  0.71337  0.22042  0.27767  1.0000
  C   C83       1.0  0.73902  0.24237  0.27924  1.0000
  C   C84       1.0  0.50312  0.14546  0.26165  1.0000
  C   C85       1.0  0.49736  0.16609  0.26281  1.0000
  C   C86       1.0  0.46915  0.22254  0.28735  1.0000
  C   C87       1.0  0.47241  0.20029  0.28948  1.0000
  H   H44       1.0  0.45479  0.22212  0.24705  1.0000
  H   H45       1.0  0.46036  0.18446  0.25034  1.0000
  H   H46       1.0  0.49521  0.17334  0.20300  1.0000
  H   H47       1.0  0.50465  0.13805  0.20154  1.0000
  H   H48       1.0  0.62902  0.13916  0.19591  1.0000
  H   H49       1.0  0.67411  0.17365  0.19327  1.0000
  H   H50       1.0  0.55988  0.99540  0.20163  1.0000
  H   H51       1.0  0.56985  0.96046  0.20306  1.0000
  H   H52       1.0  0.61178  0.91302  0.24826  1.0000
  H   H53       1.0  0.60525  0.95008  0.25139  1.0000
  H   H54       1.0  0.36537  0.91160  0.23684  1.0000
  H   H55       1.0  0.32234  0.87398  0.23944  1.0000
  H   H56       1.0  0.39003  0.95934  0.19348  1.0000
  H   H57       1.0  0.43498  0.99418  0.19609  1.0000
  H   H58       1.0  0.69959  0.22126  0.23767  1.0000
  H   H59       1.0  0.74299  0.25832  0.24014  1.0000
  C   C88       1.0  0.28380  0.51636  0.33365  1.0000
  N   N5        1.0  0.24691  0.51527  0.26194  1.0000
  C   C89       1.0  0.27000  0.51519  0.25403  1.0000
  C   C90       1.0  0.27971  0.51654  0.16873  1.0000
  O   O1        1.0  0.29746  0.53827  0.14584  1.0000
  O   O2        1.0  0.26541  0.50289  0.10694  1.0000
  H   H60       1.0  0.25124  0.48715  0.11412  1.0000
  N   N6        1.0  0.58512  0.83089  0.26454  1.0000
  C   C91       1.0  0.58522  0.85408  0.25667  1.0000
  C   C92       1.0  0.58385  0.86259  0.17140  1.0000
  O   O3        1.0  0.56237  0.85912  0.14759  1.0000
  O   O4        1.0  0.59779  0.86241  0.10988  1.0000
  H   H61       1.0  0.61346  0.86382  0.11746  1.0000
  C   C93       1.0  0.23383  0.81656  0.33353  1.0000
  N   N7        1.0  0.26956  0.85356  0.26259  1.0000
  C   C94       1.0  0.24639  0.83049  0.25420  1.0000
  C   C95       1.0  0.23807  0.82088  0.16873  1.0000
  O   O5        1.0  0.24164  0.80297  0.14494  1.0000
  O   O6        1.0  0.23832  0.83517  0.10726  1.0000
  H   H62       1.0  0.23685  0.84938  0.11485  1.0000
  C   C96       1.0  0.78635  0.61723  0.33336  1.0000
  N   N8        1.0  0.82257  0.61726  0.26156  1.0000
  C   C97       1.0  0.79976  0.61791  0.25370  1.0000
  C   C98       1.0  0.78984  0.61652  0.16842  1.0000
  O   O7        1.0  0.77165  0.59503  0.14589  1.0000
  O   O8        1.0  0.80413  0.63036  0.10684  1.0000
  H   H63       1.0  0.81842  0.64601  0.11418  1.0000
  N   N9        1.0  0.48312  0.30455  0.26422  1.0000
  C   C99       1.0  0.48249  0.28112  0.25631  1.0000
  C   C100      1.0  0.48375  0.27269  0.17107  1.0000
  O   O9        1.0  0.50533  0.27614  0.14900  1.0000
  O   O10       1.0  0.47042  0.27377  0.10877  1.0000
  H   H64       1.0  0.45484  0.27259  0.11535  1.0000
  C   C101      1.0  0.83212  0.31401  0.33319  1.0000
  N   N10       1.0  0.79571  0.27767  0.26213  1.0000
  C   C102      1.0  0.81914  0.30047  0.25379  1.0000
  C   C103      1.0  0.82742  0.31024  0.16840  1.0000
  O   O11       1.0  0.82436  0.32857  0.14527  1.0000
  O   O12       1.0  0.82662  0.29594  0.10648  1.0000
  H   H65       1.0  0.82768  0.28147  0.11358  1.0000
  C   C104      1.0  0.09176  0.61262  0.33560  1.0000
  C   C105      1.0  0.13318  0.52956  0.41279  1.0000
  C   C106      1.0  0.11259  0.53540  0.41381  1.0000
  C   C107      1.0  0.16747  0.50466  0.38782  1.0000
  C   C108      1.0  0.18979  0.50154  0.39015  1.0000
  C   C109      1.0  0.21197  0.51725  0.33589  1.0000
  C   C110      1.0  0.13455  0.69775  0.42036  1.0000
  C   C111      1.0  0.11405  0.67131  0.41929  1.0000
  C   C112      1.0  0.21056  0.77135  0.39331  1.0000
  C   C113      1.0  0.18867  0.74565  0.39498  1.0000
  C   C114      1.0  0.95560  0.59445  0.41355  1.0000
  C   C115      1.0  0.93524  0.60060  0.41253  1.0000
  C   C116      1.0  0.87973  0.63007  0.38909  1.0000
  C   C117      1.0  0.90172  0.62638  0.38684  1.0000
  C   C118      1.0  0.95385  0.45807  0.41933  1.0000
  C   C119      1.0  0.93313  0.43172  0.42042  1.0000
  C   C120      1.0  0.87855  0.38449  0.39547  1.0000
  C   C121      1.0  0.85634  0.35901  0.39375  1.0000
  H   H66       1.0  0.84043  0.35528  0.43232  1.0000
  H   H67       1.0  0.87794  0.39839  0.43504  1.0000
  H   H68       1.0  0.92566  0.42303  0.48091  1.0000
  H   H69       1.0  0.96063  0.46792  0.47855  1.0000
  H   H70       1.0  0.96299  0.59265  0.47361  1.0000
  H   H71       1.0  0.92814  0.60273  0.47240  1.0000
  H   H72       1.0  0.13439  0.59298  0.33420  1.0000
  H   H73       1.0  0.10748  0.66133  0.47849  1.0000
  H   H74       1.0  0.14211  0.70638  0.48083  1.0000
  H   H75       1.0  0.18971  0.73182  0.43411  1.0000
  H   H76       1.0  0.22665  0.77530  0.43159  1.0000
  H   H77       1.0  0.10542  0.53730  0.47389  1.0000
  H   H78       1.0  0.14062  0.52774  0.47266  1.0000
  H   H79       1.0  0.18967  0.48760  0.43190  1.0000
  H   H80       1.0  0.15184  0.49290  0.42819  1.0000
  H   H81       1.0  0.91758  0.63804  0.42658  1.0000
  H   H82       1.0  0.88033  0.64428  0.43020  1.0000
  C   C122      1.0  0.61442  0.63309  0.33852  1.0000
  C   C123      1.0  0.60090  0.64680  0.33774  1.0000
  C   C124      1.0  0.57389  0.62853  0.33740  1.0000
  N   N11       1.0  0.57207  0.60452  0.33770  1.0000
  C   C125      1.0  0.59599  0.60612  0.33831  1.0000
  C   C126      1.0  0.60228  0.58559  0.33869  1.0000
  C   C127      1.0  0.58349  0.55820  0.33811  1.0000
  N   N12       1.0  0.55691  0.54661  0.33763  1.0000
  C   C128      1.0  0.51771  0.50139  0.33661  1.0000
  C   C129      1.0  0.49733  0.50790  0.33723  1.0000
  N   N13       1.0  0.49915  0.53191  0.33762  1.0000
  C   C130      1.0  0.47524  0.53030  0.33828  1.0000
  C   C131      1.0  0.45680  0.50334  0.33842  1.0000
  C   C132      1.0  0.47033  0.48963  0.33755  1.0000
  C   C133      1.0  0.46894  0.55083  0.33876  1.0000
  C   C134      1.0  0.48773  0.57822  0.33826  1.0000
  N   N14       1.0  0.51431  0.58981  0.33785  1.0000
  C   C135      1.0  0.52608  0.61640  0.33719  1.0000
  C   C136      1.0  0.50569  0.62225  0.33717  1.0000
  C   C137      1.0  0.48207  0.59874  0.33782  1.0000
  C   C138      1.0  0.55351  0.63503  0.33683  1.0000
  C   C139      1.0  0.56099  0.66223  0.33583  1.0000
  C   C140      1.0  0.57265  0.71577  0.33401  1.0000
  C   C141      1.0  0.57078  0.70253  0.41550  1.0000
  C   C142      1.0  0.56498  0.67613  0.41655  1.0000
  C   C143      1.0  0.57688  0.74203  0.33349  1.0000
  C   C144      1.0  0.59570  0.76178  0.39051  1.0000
  C   C145      1.0  0.59882  0.78723  0.39283  1.0000
  C   C146      1.0  0.58312  0.79381  0.33852  1.0000
  C   C147      1.0  0.44180  0.54353  0.33987  1.0000
  C   C148      1.0  0.38813  0.53140  0.34176  1.0000
  C   C149      1.0  0.40255  0.53576  0.42227  1.0000
  C   C150      1.0  0.42899  0.54170  0.42149  1.0000
  C   C151      1.0  0.36168  0.52664  0.34227  1.0000
  C   C152      1.0  0.32895  0.53819  0.39392  1.0000
  C   C153      1.0  0.35465  0.54200  0.39596  1.0000
  C   C154      1.0  0.51019  0.47419  0.33559  1.0000
  C   C155      1.0  0.50591  0.46007  0.41628  1.0000
  C   C156      1.0  0.49978  0.43356  0.41525  1.0000
  C   C157      1.0  0.49788  0.42046  0.33380  1.0000
  C   C158      1.0  0.49318  0.39402  0.33333  1.0000
  C   C159      1.0  0.48584  0.34180  0.33826  1.0000
  C   C160      1.0  0.47034  0.34864  0.39185  1.0000
  C   C161      1.0  0.47400  0.37431  0.38960  1.0000
  C   C162      1.0  0.62942  0.59287  0.33981  1.0000
  C   C163      1.0  0.64235  0.59467  0.42148  1.0000
  C   C164      1.0  0.68289  0.60435  0.34174  1.0000
  C   C165      1.0  0.66869  0.60030  0.42227  1.0000
  C   C166      1.0  0.70916  0.60863  0.34227  1.0000
  C   C167      1.0  0.71594  0.59306  0.39666  1.0000
  C   C168      1.0  0.74143  0.59633  0.39454  1.0000
  H   H83       1.0  0.74520  0.58408  0.43299  1.0000
  H   H84       1.0  0.70209  0.57847  0.43634  1.0000
  H   H85       1.0  0.67743  0.60139  0.48266  1.0000
  H   H86       1.0  0.63253  0.59146  0.48079  1.0000
  H   H87       1.0  0.63451  0.64173  0.33895  1.0000
  H   H88       1.0  0.60968  0.66690  0.33766  1.0000
  H   H89       1.0  0.55564  0.58816  0.33739  1.0000
  H   H90       1.0  0.51558  0.54827  0.33737  1.0000
  H   H91       1.0  0.56382  0.49592  0.33681  1.0000
  H   H92       1.0  0.50776  0.46915  0.47635  1.0000
  H   H93       1.0  0.49767  0.42422  0.47511  1.0000
  H   H94       1.0  0.43672  0.49469  0.33891  1.0000
  H   H95       1.0  0.50738  0.64049  0.33681  1.0000
  H   H96       1.0  0.46390  0.59720  0.33778  1.0000
  H   H97       1.0  0.43894  0.54504  0.48077  1.0000
  H   H98       1.0  0.39388  0.53461  0.48262  1.0000
  H   H99       1.0  0.36844  0.55679  0.43517  1.0000
  H   H100      1.0  0.32497  0.55028  0.43196  1.0000
  H   H101      1.0  0.56305  0.66692  0.47664  1.0000
  H   H102      1.0  0.57262  0.71170  0.47536  1.0000
  H   H103      1.0  0.61275  0.80096  0.43460  1.0000
  H   H104      1.0  0.60745  0.75784  0.43090  1.0000
  H   H105      1.0  0.46236  0.37843  0.42940  1.0000
  H   H106      1.0  0.45615  0.33495  0.43300  1.0000
  C   C169      1.0  0.46725  0.08038  0.34069  1.0000
  C   C170      1.0  0.45355  0.05315  0.33973  1.0000
  C   C171      1.0  0.47182  0.04442  0.33939  1.0000
  N   N15       1.0  0.49583  0.06661  0.33989  1.0000
  C   C172      1.0  0.49421  0.08891  0.34058  1.0000
  C   C173      1.0  0.51474  0.11574  0.34106  1.0000
  C   C174      1.0  0.54213  0.12434  0.34039  1.0000
  N   N16       1.0  0.55372  0.10936  0.33983  1.0000
  C   C175      1.0  0.58032  0.12419  0.33899  1.0000
  C   C176      1.0  0.58617  0.15043  0.33901  1.0000
  C   C177      1.0  0.56265  0.15053  0.33990  1.0000
  C   C178      1.0  0.59895  0.11539  0.33848  1.0000
  C   C179      1.0  0.59245  0.08851  0.33929  1.0000
  N   N17       1.0  0.56844  0.06632  0.33987  1.0000
  C   C180      1.0  0.57006  0.04402  0.34059  1.0000
  C   C181      1.0  0.59702  0.05255  0.34067  1.0000
  C   C182      1.0  0.61072  0.07978  0.33959  1.0000
  C   C183      1.0  0.54953  0.01719  0.34112  1.0000
  C   C184      1.0  0.52215  0.00858  0.34050  1.0000
  N   N18       1.0  0.51055  0.02357  0.34001  1.0000
  C   C185      1.0  0.48396  0.00874  0.33918  1.0000
  C   C186      1.0  0.47811  0.98250  0.33912  1.0000
  C   C187      1.0  0.50163  0.98240  0.33995  1.0000
  C   C188      1.0  0.46532  0.01754  0.33867  1.0000
  C   C189      1.0  0.43813  0.99782  0.33722  1.0000
  C   C190      1.0  0.38460  0.95596  0.33440  1.0000
  C   C191      1.0  0.39771  0.96705  0.41615  1.0000
  C   C192      1.0  0.42411  0.98765  0.41769  1.0000
  C   C193      1.0  0.35832  0.93393  0.33335  1.0000
  C   C194      1.0  0.33849  0.93283  0.39007  1.0000
  C   C195      1.0  0.31303  0.91051  0.39184  1.0000
  C   C196      1.0  0.30653  0.88840  0.33733  1.0000
  C   C197      1.0  0.55684  0.99735  0.34228  1.0000
  C   C198      1.0  0.56898  0.95581  0.34430  1.0000
  C   C199      1.0  0.56462  0.96572  0.42476  1.0000
  C   C200      1.0  0.55867  0.98621  0.42393  1.0000
  C   C201      1.0  0.57375  0.93413  0.34485  1.0000
  C   C202      1.0  0.58139  0.88944  0.34022  1.0000
  C   C203      1.0  0.56222  0.88975  0.39665  1.0000
  C   C204      1.0  0.55840  0.91163  0.39864  1.0000
  C   C205      1.0  0.62615  0.13509  0.33699  1.0000
  C   C206      1.0  0.64039  0.14487  0.41742  1.0000
  C   C207      1.0  0.66689  0.16526  0.41586  1.0000
  C   C208      1.0  0.67988  0.17651  0.33414  1.0000
  C   C209      1.0  0.70632  0.19823  0.33311  1.0000
  C   C210      1.0  0.75856  0.24309  0.33692  1.0000
  C   C211      1.0  0.75179  0.22071  0.39085  1.0000
  C   C212      1.0  0.72611  0.19872  0.38915  1.0000
  C   C213      1.0  0.50746  0.13559  0.34225  1.0000
  C   C214      1.0  0.50569  0.14657  0.42394  1.0000
  C   C215      1.0  0.49597  0.17758  0.34430  1.0000
  C   C216      1.0  0.50006  0.16728  0.42479  1.0000
  C   C217      1.0  0.49171  0.19959  0.34486  1.0000
  C   C218      1.0  0.50732  0.22183  0.39917  1.0000
  C   C219      1.0  0.50408  0.24407  0.39700  1.0000
  C   C220      1.0  0.48523  0.24499  0.34002  1.0000
  H   H107      1.0  0.51635  0.26001  0.43542  1.0000
  H   H108      1.0  0.52193  0.22248  0.43872  1.0000
  H   H109      1.0  0.49901  0.17483  0.48520  1.0000
  H   H110      1.0  0.50893  0.13985  0.48322  1.0000
  H   H111      1.0  0.45860  0.09182  0.34114  1.0000
  H   H112      1.0  0.43344  0.04182  0.33954  1.0000
  H   H113      1.0  0.51219  0.06655  0.33963  1.0000
  H   H114      1.0  0.55208  0.06638  0.33961  1.0000
  H   H115      1.0  0.56111  0.16716  0.33996  1.0000
  H   H116      1.0  0.60441  0.16698  0.33863  1.0000
  H   H117      1.0  0.63140  0.13761  0.47767  1.0000
  H   H118      1.0  0.67633  0.17245  0.47554  1.0000
  H   H119      1.0  0.63083  0.09110  0.33930  1.0000
  H   H120      1.0  0.60567  0.04111  0.34108  1.0000
  H   H121      1.0  0.45987  0.96595  0.33864  1.0000
  H   H122      1.0  0.50317  0.96577  0.33991  1.0000
  H   H123      1.0  0.55533  0.99271  0.48320  1.0000
  H   H124      1.0  0.56576  0.95809  0.48514  1.0000
  H   H125      1.0  0.54359  0.91054  0.43775  1.0000
  H   H126      1.0  0.55011  0.87360  0.43459  1.0000
  H   H127      1.0  0.43322  0.99475  0.47795  1.0000
  H   H128      1.0  0.38845  0.95956  0.47583  1.0000
  H   H129      1.0  0.29924  0.91059  0.43338  1.0000
  H   H130      1.0  0.34238  0.94841  0.43058  1.0000
  H   H131      1.0  0.72203  0.18293  0.42919  1.0000
  H   H132      1.0  0.76553  0.22018  0.43188  1.0000
  N   N19       1.0  0.27236  0.51684  0.41201  1.0000
  C   C221      1.0  0.24883  0.51599  0.42007  1.0000
  C   C222      1.0  0.23535  0.51547  0.34034  1.0000
  C   C223      1.0  0.24084  0.51827  0.50507  1.0000
  O   O13       1.0  0.24278  0.50511  0.56508  1.0000
  O   O14       1.0  0.24197  0.53890  0.53029  1.0000
  H   H133      1.0  0.24308  0.55151  0.49454  1.0000
  C   C224      1.0  0.58405  0.86656  0.33629  1.0000
  N   N20       1.0  0.58356  0.85447  0.41464  1.0000
  C   C225      1.0  0.58443  0.83177  0.42269  1.0000
  C   C226      1.0  0.58489  0.81895  0.34294  1.0000
  C   C227      1.0  0.58208  0.82130  0.50773  1.0000
  O   O15       1.0  0.59555  0.83629  0.56723  1.0000
  O   O16       1.0  0.56131  0.80189  0.53269  1.0000
  H   H134      1.0  0.54866  0.79055  0.49683  1.0000
  N   N21       1.0  0.24578  0.82791  0.41214  1.0000
  C   C228      1.0  0.26845  0.85145  0.42071  1.0000
  C   C229      1.0  0.28137  0.86502  0.34124  1.0000
  C   C230      1.0  0.27877  0.85932  0.50590  1.0000
  O   O17       1.0  0.26371  0.85732  0.56569  1.0000
  O   O18       1.0  0.29826  0.85811  0.53135  1.0000
  H   H135      1.0  0.30974  0.85704  0.49572  1.0000
  N   N22       1.0  0.79789  0.61663  0.41172  1.0000
  C   C231      1.0  0.82119  0.61695  0.41974  1.0000
  C   C232      1.0  0.83424  0.61694  0.33996  1.0000
  C   C233      1.0  0.82929  0.61461  0.50481  1.0000
  O   O19       1.0  0.82788  0.62810  0.56431  1.0000
  O   O20       1.0  0.82773  0.59381  0.53082  1.0000
  H   H136      1.0  0.82621  0.58100  0.49554  1.0000
  C   C234      1.0  0.48318  0.26823  0.33599  1.0000
  N   N23       1.0  0.48380  0.28022  0.41436  1.0000
  C   C235      1.0  0.48352  0.30320  0.42239  1.0000
  C   C236      1.0  0.48349  0.31640  0.34263  1.0000
  C   C237      1.0  0.48584  0.31345  0.50746  1.0000
  O   O21       1.0  0.47237  0.29843  0.56697  1.0000
  O   O22       1.0  0.50663  0.33266  0.53346  1.0000
  H   H137      1.0  0.51943  0.34403  0.49818  1.0000
  N   N24       1.0  0.82024  0.30258  0.41180  1.0000
  C   C238      1.0  0.79730  0.27927  0.42027  1.0000
  C   C239      1.0  0.78398  0.26613  0.34076  1.0000
  C   C240      1.0  0.78713  0.27132  0.50558  1.0000
  O   O23       1.0  0.80223  0.27249  0.56436  1.0000
  O   O24       1.0  0.76811  0.27318  0.53156  1.0000
  H   H138      1.0  0.75679  0.27478  0.49632  1.0000
