data_image0
_chemical_formula_structural       HCHC2HCHC11H6C6H2C2H2C10H6C6H2C2H2C2H2C3H2NC2H2C3H2NC2H2CNC8H7CHC8H7CHC7H3NH2NC7H3NH2NC4H2NHN
_chemical_formula_sum              "H63 C90 N9"
_cell_length_a       44.4459
_cell_length_b       44.4149
_cell_length_c       14.9441
_cell_angle_alpha    90
_cell_angle_beta     90
_cell_angle_gamma    120.015

_space_group_name_H-M_alt    "P 1"
_space_group_IT_number       1

loop_
  _space_group_symop_operation_xyz
  'x, y, z'

loop_
  _atom_site_type_symbol
  _atom_site_label
  _atom_site_symmetry_multiplicity
  _atom_site_fract_x
  _atom_site_fract_y
  _atom_site_fract_z
  _atom_site_occupancy
  H   H1        1.0  0.00589  0.51710  0.52989  1.0000
  C   C1        1.0  0.03883  0.54487  0.31041  1.0000
  H   H2        1.0  0.02500  0.55431  0.27785  1.0000
  C   C2        1.0  0.02147  0.51354  0.35959  1.0000
  C   C3        1.0  0.04159  0.50125  0.40260  1.0000
  H   H3        1.0  0.02976  0.47833  0.43745  1.0000
  C   C4        1.0  0.07536  0.56379  0.30602  1.0000
  H   H4        1.0  0.08691  0.58618  0.26925  1.0000
  C   C5        1.0  0.07816  0.52021  0.39803  1.0000
  C   C6        1.0  0.26268  0.64007  0.33434  1.0000
  C   C7        1.0  0.36561  0.62453  0.32418  1.0000
  C   C8        1.0  0.18876  0.61184  0.33011  1.0000
  C   C9        1.0  0.21130  0.64143  0.27873  1.0000
  C   C10       1.0  0.24749  0.65518  0.28061  1.0000
  C   C11       1.0  0.37369  0.76569  0.29285  1.0000
  C   C12       1.0  0.39600  0.80200  0.29489  1.0000
  C   C13       1.0  0.39372  0.57876  0.31407  1.0000
  C   C14       1.0  0.36545  0.57354  0.25958  1.0000
  C   C15       1.0  0.35173  0.59598  0.26441  1.0000
  H   H5        1.0  0.20157  0.65335  0.23897  1.0000
  H   H6        1.0  0.26264  0.67628  0.24118  1.0000
  H   H7        1.0  0.35223  0.75591  0.25251  1.0000
  H   H8        1.0  0.38995  0.81732  0.25648  1.0000
  H   H9        1.0  0.35440  0.55317  0.21546  1.0000
  H   H10       1.0  0.33155  0.59134  0.22287  1.0000
  C   C16       1.0  0.35103  0.64682  0.33025  1.0000
  C   C17       1.0  0.37261  0.68341  0.33387  1.0000
  C   C18       1.0  0.35885  0.70605  0.33929  1.0000
  C   C19       1.0  0.32226  0.69094  0.34067  1.0000
  C   C20       1.0  0.29960  0.65452  0.33614  1.0000
  C   C21       1.0  0.31459  0.63298  0.33152  1.0000
  H   H11       1.0  0.39896  0.69383  0.32923  1.0000
  H   H12       1.0  0.29857  0.60659  0.32826  1.0000
  C   C22       1.0  0.40580  0.55528  0.30927  1.0000
  C   C23       1.0  0.15321  0.59974  0.32859  1.0000
  H   H13       1.0  0.39050  0.53229  0.28108  1.0000
  H   H14       1.0  0.14536  0.61626  0.31057  1.0000
  C   C24       1.0  0.74327  0.36566  0.34277  1.0000
  C   C25       1.0  0.63817  0.37739  0.33268  1.0000
  C   C26       1.0  0.81741  0.39774  0.32563  1.0000
  C   C27       1.0  0.79479  0.36731  0.27707  1.0000
  C   C28       1.0  0.75851  0.35160  0.28551  1.0000
  C   C29       1.0  0.63557  0.23898  0.30048  1.0000
  C   C30       1.0  0.61402  0.20256  0.29863  1.0000
  C   C31       1.0  0.60609  0.41936  0.31217  1.0000
  C   C32       1.0  0.63541  0.42571  0.26057  1.0000
  C   C33       1.0  0.65115  0.40520  0.27070  1.0000
  H   H15       1.0  0.80450  0.35642  0.23369  1.0000
  H   H16       1.0  0.74329  0.33026  0.24688  1.0000
  H   H17       1.0  0.65773  0.24976  0.26268  1.0000
  H   H18       1.0  0.62134  0.18814  0.26051  1.0000
  H   H19       1.0  0.64553  0.44526  0.21401  1.0000
  H   H20       1.0  0.67174  0.41029  0.23025  1.0000
  C   C34       1.0  0.65378  0.35609  0.34115  1.0000
  C   C35       1.0  0.63308  0.31939  0.34418  1.0000
  C   C36       1.0  0.64778  0.29756  0.34958  1.0000
  C   C37       1.0  0.68448  0.31370  0.35175  1.0000
  C   C38       1.0  0.70628  0.35024  0.34746  1.0000
  C   C39       1.0  0.69035  0.37093  0.34287  1.0000
  H   H21       1.0  0.60669  0.30830  0.33810  1.0000
  H   H22       1.0  0.70573  0.39739  0.33893  1.0000
  C   C40       1.0  0.59055  0.43953  0.29799  1.0000
  C   C41       1.0  0.85317  0.41326  0.31249  1.0000
  H   H23       1.0  0.59761  0.45486  0.24437  1.0000
  H   H24       1.0  0.86165  0.40512  0.26145  1.0000
  C   C42       1.0  0.52362  0.48607  0.27181  1.0000
  C   C43       1.0  0.54323  0.46922  0.26964  1.0000
  H   H25       1.0  0.51922  0.49496  0.21277  1.0000
  H   H26       1.0  0.55184  0.46579  0.20917  1.0000
  C   C44       1.0  0.45216  0.54379  0.34073  1.0000
  C   C45       1.0  0.44032  0.51149  0.29697  1.0000
  C   C46       1.0  0.45943  0.49408  0.30152  1.0000
  H   H27       1.0  0.41780  0.50031  0.26083  1.0000
  H   H28       1.0  0.45006  0.47073  0.26933  1.0000
  N   N1        1.0  0.43571  0.56202  0.33911  1.0000
  C   C47       1.0  0.51917  0.03977  0.27563  1.0000
  C   C48       1.0  0.53743  0.07632  0.27604  1.0000
  H   H29       1.0  0.50908  0.02715  0.21631  1.0000
  H   H30       1.0  0.54061  0.08948  0.21737  1.0000
  C   C49       1.0  0.45870  0.90975  0.34429  1.0000
  C   C50       1.0  0.49181  0.92909  0.30382  1.0000
  C   C51       1.0  0.51008  0.96569  0.30673  1.0000
  H   H31       1.0  0.50284  0.91668  0.27165  1.0000
  H   H32       1.0  0.53415  0.97897  0.27780  1.0000
  N   N2        1.0  0.44018  0.87513  0.34366  1.0000
  C   C52       1.0  0.96617  0.48084  0.28229  1.0000
  C   C53       1.0  0.92970  0.46141  0.28095  1.0000
  H   H33       1.0  0.97926  0.48486  0.22307  1.0000
  H   H34       1.0  0.91741  0.45252  0.22085  1.0000
  C   C54       1.0  0.09559  0.55191  0.35062  1.0000
  N   N3        1.0  0.13025  0.56831  0.34901  1.0000
  C   C55       1.0  0.38121  0.74304  0.34244  1.0000
  C   C56       1.0  0.24009  0.61029  0.38523  1.0000
  C   C57       1.0  0.20380  0.59642  0.38330  1.0000
  C   C58       1.0  0.42680  0.81699  0.34658  1.0000
  C   C59       1.0  0.43439  0.79452  0.39635  1.0000
  C   C60       1.0  0.41193  0.75828  0.39467  1.0000
  C   C61       1.0  0.39413  0.62997  0.37811  1.0000
  C   C62       1.0  0.40791  0.60751  0.37332  1.0000
  H   H35       1.0  0.18853  0.57527  0.42244  1.0000
  H   H36       1.0  0.41824  0.74311  0.43283  1.0000
  H   H37       1.0  0.45643  0.80435  0.43463  1.0000
  H   H38       1.0  0.40461  0.64990  0.42349  1.0000
  H   H39       1.0  0.42808  0.61208  0.41484  1.0000
  H   H40       1.0  0.31184  0.70681  0.34734  1.0000
  H   H41       1.0  0.24992  0.59881  0.42612  1.0000
  C   C63       1.0  0.45017  0.85250  0.34645  1.0000
  H   H42       1.0  0.47539  0.86049  0.35227  1.0000
  C   C64       1.0  0.62627  0.26039  0.34983  1.0000
  C   C65       1.0  0.76586  0.39600  0.39175  1.0000
  C   C66       1.0  0.80224  0.41171  0.38354  1.0000
  C   C67       1.0  0.58221  0.18629  0.34584  1.0000
  C   C68       1.0  0.57269  0.20734  0.39529  1.0000
  C   C69       1.0  0.59449  0.24370  0.39776  1.0000
  C   C70       1.0  0.60889  0.37106  0.38450  1.0000
  C   C71       1.0  0.59316  0.39165  0.37460  1.0000
  H   H43       1.0  0.81752  0.43384  0.41949  1.0000
  H   H44       1.0  0.58681  0.25789  0.43549  1.0000
  H   H45       1.0  0.54977  0.19639  0.43011  1.0000
  H   H46       1.0  0.59880  0.35143  0.43075  1.0000
  H   H47       1.0  0.57186  0.38586  0.41295  1.0000
  H   H48       1.0  0.69567  0.29849  0.35778  1.0000
  H   H49       1.0  0.75601  0.40695  0.43437  1.0000
  C   C72       1.0  0.55979  0.15079  0.34049  1.0000
  H   H50       1.0  0.53492  0.14218  0.32577  1.0000
  C   C73       1.0  0.55041  0.45680  0.34916  1.0000
  C   C74       1.0  0.53681  0.46113  0.43030  1.0000
  C   C75       1.0  0.51682  0.47794  0.43413  1.0000
  C   C76       1.0  0.51037  0.49088  0.35331  1.0000
  C   C77       1.0  0.49087  0.50835  0.35021  1.0000
  C   C78       1.0  0.50297  0.54079  0.39300  1.0000
  C   C79       1.0  0.48380  0.55819  0.38836  1.0000
  H   H51       1.0  0.52594  0.55209  0.42757  1.0000
  H   H52       1.0  0.49324  0.58164  0.42013  1.0000
  H   H53       1.0  0.54137  0.45155  0.48795  1.0000
  N   N4        1.0  0.50375  0.48010  0.51477  1.0000
  H   H54       1.0  0.50800  0.47051  0.56876  1.0000
  H   H55       1.0  0.48845  0.48970  0.52070  1.0000
  N   N5        1.0  0.56800  0.43973  0.35170  1.0000
  C   C80       1.0  0.55160  0.09470  0.35628  1.0000
  C   C81       1.0  0.54766  0.07588  0.43554  1.0000
  C   C82       1.0  0.52910  0.03901  0.43686  1.0000
  C   C83       1.0  0.51457  0.02074  0.35534  1.0000
  C   C84       1.0  0.49572  0.98383  0.35040  1.0000
  C   C85       1.0  0.46233  0.96458  0.38914  1.0000
  C   C86       1.0  0.44398  0.92797  0.38548  1.0000
  H   H56       1.0  0.45120  0.97707  0.42053  1.0000
  H   H57       1.0  0.41995  0.91466  0.41463  1.0000
  H   H58       1.0  0.55853  0.08937  0.49337  1.0000
  N   N6        1.0  0.52664  0.02259  0.51574  1.0000
  H   H59       1.0  0.53713  0.03565  0.57031  1.0000
  H   H60       1.0  0.51528  0.99743  0.51999  1.0000
  N   N7        1.0  0.57026  0.12918  0.35794  1.0000
  C   C87       1.0  0.91039  0.45470  0.36084  1.0000
  C   C88       1.0  0.92860  0.46869  0.44143  1.0000
  C   C89       1.0  0.96542  0.48850  0.44443  1.0000
  C   C90       1.0  0.98450  0.49437  0.36332  1.0000
  H   H61       1.0  0.09202  0.51070  0.43013  1.0000
  H   H62       1.0  0.91465  0.46446  0.49929  1.0000
  N   N8        1.0  0.98094  0.50191  0.52457  1.0000
  H   H63       1.0  0.96731  0.49804  0.57875  1.0000
  N   N9        1.0  0.87575  0.43713  0.36395  1.0000
