data_image0
_chemical_formula_structural       C2NH2CH2C2NHCOC2OCHC3NH4C6N2H6C6N2H6C5H2NO2C5H2NH2NO2C4H2NH2NOC5H2NH2NO2C5H2NH2NO2C5H2NH2NO2C3HN2H2C3HNC3NH3C3HNC3NH3C3HC3HN2H2OC3HC4HN2H2O2C6HN2H2O2C3HC4HN2H2O2C3HC4HN2H2O2C3HC4HN2H2O2
_chemical_formula_sum              "C108 N36 H78 O24"
_cell_length_a       31.5669
_cell_length_b       31.5668
_cell_length_c       14.8671
_cell_angle_alpha    90
_cell_angle_beta     90
_cell_angle_gamma    120

_space_group_name_H-M_alt    "P 1"
_space_group_IT_number       1

loop_
  _space_group_symop_operation_xyz
  'x, y, z'

loop_
  _atom_site_type_symbol
  _atom_site_label
  _atom_site_symmetry_multiplicity
  _atom_site_fract_x
  _atom_site_fract_y
  _atom_site_fract_z
  _atom_site_occupancy
  C   C1        1.0  0.03361  0.51885  0.33405  1.0000
  C   C2        1.0  0.06181  0.56972  0.30960  1.0000
  N   N1        1.0  0.04088  0.59152  0.26189  1.0000
  H   H1        1.0  0.05955  0.62515  0.24126  1.0000
  H   H2        1.0  0.00918  0.57214  0.23350  1.0000
  C   C3        1.0  0.06058  0.49625  0.36300  1.0000
  H   H3        1.0  0.04255  0.45978  0.37832  1.0000
  H   H4        1.0  0.10159  0.49267  0.19806  1.0000
  C   C4        1.0  0.11220  0.52110  0.36669  1.0000
  C   C5        1.0  0.11312  0.59732  0.32983  1.0000
  N   N2        1.0  0.12724  0.48428  0.19855  1.0000
  H   H5        1.0  0.13623  0.47682  0.14047  1.0000
  C   C6        1.0  0.14136  0.64945  0.31714  1.0000
  O   O1        1.0  0.13739  0.62836  0.12550  1.0000
  C   C7        1.0  0.13856  0.57298  0.35954  1.0000
  C   C8        1.0  0.13758  0.49388  0.36222  1.0000
  O   O2        1.0  0.13622  0.46521  0.57671  1.0000
  C   C9        1.0  0.14341  0.67993  0.38860  1.0000
  H   H6        1.0  0.11809  0.66492  0.43923  1.0000
  C   C10       1.0  0.97977  0.49003  0.33406  1.0000
  C   C11       1.0  0.90023  0.41158  0.32984  1.0000
  C   C12       1.0  0.95156  0.43916  0.30964  1.0000
  N   N3        1.0  0.97254  0.41733  0.26216  1.0000
  H   H7        1.0  0.00410  0.43683  0.23338  1.0000
  H   H8        1.0  0.95366  0.38380  0.24108  1.0000
  H   H9        1.0  0.20635  0.63391  0.38101  1.0000
  H   H10       1.0  0.80700  0.37502  0.38099  1.0000
  C   C13       1.0  0.52110  0.49196  0.33407  1.0000
  C   C14       1.0  0.59955  0.49089  0.32988  1.0000
  C   C15       1.0  0.57197  0.51462  0.30966  1.0000
  C   C16       1.0  0.49229  0.51698  0.33410  1.0000
  C   C17       1.0  0.44143  0.49434  0.30960  1.0000
  C   C18       1.0  0.41384  0.51807  0.32982  1.0000
  N   N4        1.0  0.59377  0.55736  0.26200  1.0000
  N   N5        1.0  0.41964  0.45159  0.26193  1.0000
  H   H11       1.0  0.57445  0.56976  0.23366  1.0000
  H   H12       1.0  0.62743  0.57232  0.24145  1.0000
  H   H13       1.0  0.38605  0.43679  0.24113  1.0000
  H   H14       1.0  0.43902  0.43930  0.23346  1.0000
  H   H15       1.0  0.37727  0.57472  0.38106  1.0000
  H   H16       1.0  0.63612  0.43423  0.38097  1.0000
  C   C19       1.0  0.51922  0.03138  0.33407  1.0000
  C   C20       1.0  0.52029  0.11091  0.32982  1.0000
  C   C21       1.0  0.49657  0.05959  0.30961  1.0000
  C   C22       1.0  0.49421  0.97754  0.33409  1.0000
  C   C23       1.0  0.51687  0.94933  0.30967  1.0000
  C   C24       1.0  0.49312  0.89801  0.32984  1.0000
  N   N6        1.0  0.45380  0.03865  0.26202  1.0000
  N   N7        1.0  0.55970  0.97031  0.26222  1.0000
  H   H17       1.0  0.44170  0.00704  0.23334  1.0000
  H   H18       1.0  0.43898  0.05738  0.24105  1.0000
  H   H19       1.0  0.57435  0.95146  0.24107  1.0000
  H   H20       1.0  0.57168  0.00185  0.23336  1.0000
  H   H21       1.0  0.43641  0.80474  0.38083  1.0000
  H   H22       1.0  0.57697  0.20416  0.38094  1.0000
  C   C25       1.0  0.36170  0.49419  0.31720  1.0000
  C   C26       1.0  0.34053  0.50796  0.24681  1.0000
  C   C27       1.0  0.29185  0.49793  0.25598  1.0000
  C   C28       1.0  0.18655  0.46992  0.26952  1.0000
  C   C29       1.0  0.14912  0.48216  0.27619  1.0000
  H   H23       1.0  0.19471  0.46208  0.20727  1.0000
  H   H24       1.0  0.27957  0.51287  0.20882  1.0000
  N   N8        1.0  0.36557  0.53365  0.16806  1.0000
  O   O3        1.0  0.39908  0.57672  0.18215  1.0000
  O   O4        1.0  0.38284  0.51133  0.12554  1.0000
  C   C30       1.0  0.51703  0.86977  0.31739  1.0000
  C   C31       1.0  0.50336  0.83491  0.24685  1.0000
  C   C32       1.0  0.51342  0.79628  0.25594  1.0000
  C   C33       1.0  0.54128  0.71887  0.26953  1.0000
  C   C34       1.0  0.52899  0.66918  0.27621  1.0000
  H   H25       1.0  0.54907  0.73484  0.20725  1.0000
  H   H26       1.0  0.49844  0.76904  0.20880  1.0000
  N   N9        1.0  0.52684  0.64516  0.19858  1.0000
  H   H27       1.0  0.53432  0.66161  0.14049  1.0000
  H   H28       1.0  0.51844  0.61112  0.19810  1.0000
  N   N10       1.0  0.47768  0.83427  0.16810  1.0000
  O   O5        1.0  0.43457  0.82460  0.18213  1.0000
  O   O6        1.0  0.49995  0.87388  0.12567  1.0000
  C   C35       1.0  0.17632  0.67065  0.24677  1.0000
  C   C36       1.0  0.21497  0.71933  0.25595  1.0000
  C   C37       1.0  0.29227  0.82463  0.26948  1.0000
  C   C38       1.0  0.34194  0.86205  0.27615  1.0000
  H   H29       1.0  0.27624  0.81647  0.20724  1.0000
  H   H30       1.0  0.24220  0.73162  0.20878  1.0000
  N   N11       1.0  0.36593  0.88393  0.19849  1.0000
  H   H31       1.0  0.34946  0.87494  0.14041  1.0000
  H   H32       1.0  0.39997  0.90956  0.19797  1.0000
  N   N12       1.0  0.17697  0.64561  0.16802  1.0000
  O   O7        1.0  0.18652  0.61210  0.18209  1.0000
  C   C39       1.0  0.65170  0.51480  0.31736  1.0000
  C   C40       1.0  0.67287  0.50111  0.24682  1.0000
  C   C41       1.0  0.72157  0.51118  0.25588  1.0000
  C   C42       1.0  0.82685  0.53904  0.26945  1.0000
  C   C43       1.0  0.86423  0.52673  0.27616  1.0000
  H   H33       1.0  0.81866  0.54682  0.20718  1.0000
  H   H34       1.0  0.73381  0.49619  0.20875  1.0000
  N   N13       1.0  0.88610  0.52458  0.19851  1.0000
  H   H35       1.0  0.87713  0.53207  0.14042  1.0000
  H   H36       1.0  0.91173  0.51618  0.19802  1.0000
  N   N14       1.0  0.64781  0.47542  0.16809  1.0000
  O   O8        1.0  0.61437  0.43232  0.18215  1.0000
  O   O9        1.0  0.63048  0.49770  0.12567  1.0000
  C   C44       1.0  0.49640  0.13915  0.31716  1.0000
  C   C45       1.0  0.51016  0.17412  0.24680  1.0000
  C   C46       1.0  0.50014  0.21277  0.25599  1.0000
  C   C47       1.0  0.47215  0.29007  0.26954  1.0000
  C   C48       1.0  0.48439  0.33974  0.27621  1.0000
  H   H37       1.0  0.46429  0.27406  0.20729  1.0000
  H   H38       1.0  0.51508  0.23999  0.20882  1.0000
  N   N15       1.0  0.48651  0.36374  0.19857  1.0000
  H   H39       1.0  0.47904  0.34728  0.14047  1.0000
  H   H40       1.0  0.49490  0.39778  0.19806  1.0000
  N   N16       1.0  0.53584  0.17477  0.16804  1.0000
  O   O10       1.0  0.57892  0.18432  0.18211  1.0000
  O   O11       1.0  0.51352  0.13519  0.12551  1.0000
  C   C49       1.0  0.87199  0.35943  0.31737  1.0000
  C   C50       1.0  0.83712  0.33825  0.24685  1.0000
  C   C51       1.0  0.79849  0.28955  0.25593  1.0000
  C   C52       1.0  0.72111  0.18427  0.26951  1.0000
  C   C53       1.0  0.67142  0.14688  0.27619  1.0000
  H   H41       1.0  0.73708  0.19245  0.20724  1.0000
  H   H42       1.0  0.77125  0.27730  0.20880  1.0000
  N   N17       1.0  0.64742  0.12498  0.19855  1.0000
  H   H43       1.0  0.66387  0.13395  0.14047  1.0000
  H   H44       1.0  0.61338  0.09933  0.19807  1.0000
  N   N18       1.0  0.83647  0.36330  0.16812  1.0000
  O   O12       1.0  0.82680  0.39673  0.18217  1.0000
  O   O13       1.0  0.87608  0.38064  0.12566  1.0000
  C   C54       1.0  0.95281  0.51266  0.36290  1.0000
  C   C55       1.0  0.90119  0.48781  0.36667  1.0000
  C   C56       1.0  0.87480  0.43593  0.35955  1.0000
  H   H45       1.0  0.97084  0.54912  0.37830  1.0000
  N   N19       1.0  0.82561  0.41039  0.37847  1.0000
  N   N20       1.0  0.18774  0.59853  0.37847  1.0000
  H   H46       1.0  0.20608  0.58283  0.39567  1.0000
  H   H47       1.0  0.80731  0.42611  0.39577  1.0000
  C   C57       1.0  0.49848  0.44238  0.36300  1.0000
  C   C58       1.0  0.52332  0.41560  0.36669  1.0000
  C   C59       1.0  0.57521  0.44111  0.35956  1.0000
  H   H48       1.0  0.46201  0.42395  0.37831  1.0000
  N   N21       1.0  0.60075  0.41746  0.37844  1.0000
  C   C60       1.0  0.43818  0.56784  0.35958  1.0000
  C   C61       1.0  0.49007  0.59333  0.36674  1.0000
  C   C62       1.0  0.51490  0.56655  0.36306  1.0000
  N   N22       1.0  0.41265  0.59149  0.37851  1.0000
  H   H49       1.0  0.55137  0.58498  0.37841  1.0000
  H   H50       1.0  0.42837  0.62551  0.39583  1.0000
  H   H51       1.0  0.58503  0.38343  0.39567  1.0000
  C   C63       1.0  0.56880  0.05835  0.36300  1.0000
  C   C64       1.0  0.59557  0.10997  0.36669  1.0000
  C   C65       1.0  0.57006  0.13634  0.35955  1.0000
  H   H52       1.0  0.58725  0.04032  0.37833  1.0000
  N   N23       1.0  0.59371  0.18552  0.37849  1.0000
  C   C66       1.0  0.44334  0.87258  0.35950  1.0000
  C   C67       1.0  0.41784  0.89896  0.36662  1.0000
  C   C68       1.0  0.44460  0.95057  0.36287  1.0000
  N   N24       1.0  0.41968  0.82339  0.37841  1.0000
  H   H53       1.0  0.42617  0.96861  0.37825  1.0000
  H   H54       1.0  0.38562  0.80505  0.39549  1.0000
  H   H55       1.0  0.62776  0.20386  0.39563  1.0000
  C   C69       1.0  0.26174  0.47249  0.33085  1.0000
  C   C70       1.0  0.28130  0.45288  0.39461  1.0000
  C   C71       1.0  0.33123  0.46572  0.38862  1.0000
  H   H56       1.0  0.34623  0.45539  0.43923  1.0000
  C   C72       1.0  0.21611  0.47261  0.34340  1.0000
  C   C73       1.0  0.16258  0.49095  0.43930  1.0000
  C   C74       1.0  0.20227  0.48229  0.42829  1.0000
  H   H57       1.0  0.22328  0.48635  0.48352  1.0000
  N   N25       1.0  0.15023  0.50127  0.52505  1.0000
  N   N26       1.0  0.25388  0.42179  0.46156  1.0000
  H   H58       1.0  0.26765  0.40790  0.50289  1.0000
  H   H59       1.0  0.21857  0.40723  0.46259  1.0000
  O   O14       1.0  0.18541  0.53782  0.56168  1.0000
  C   C75       1.0  0.53877  0.79152  0.33089  1.0000
  C   C76       1.0  0.55832  0.83065  0.39477  1.0000
  C   C77       1.0  0.54548  0.86774  0.38880  1.0000
  H   H60       1.0  0.55570  0.89299  0.43954  1.0000
  C   C78       1.0  0.53857  0.74573  0.34341  1.0000
  C   C79       1.0  0.51728  0.64593  0.36225  1.0000
  C   C80       1.0  0.52026  0.67389  0.43933  1.0000
  C   C81       1.0  0.52898  0.72226  0.42834  1.0000
  H   H61       1.0  0.52489  0.73918  0.48357  1.0000
  N   N27       1.0  0.50995  0.65121  0.52509  1.0000
  N   N28       1.0  0.58928  0.83420  0.46189  1.0000
  H   H62       1.0  0.60350  0.86214  0.50257  1.0000
  H   H63       1.0  0.60417  0.81374  0.46207  1.0000
  O   O15       1.0  0.54603  0.67324  0.57670  1.0000
  O   O16       1.0  0.47342  0.64988  0.56176  1.0000
  C   C82       1.0  0.21966  0.74943  0.33084  1.0000
  C   C83       1.0  0.18050  0.72986  0.39462  1.0000
  C   C84       1.0  0.26541  0.79506  0.34338  1.0000
  C   C85       1.0  0.36524  0.87360  0.36213  1.0000
  C   C86       1.0  0.33730  0.84859  0.43921  1.0000
  C   C87       1.0  0.28894  0.80890  0.42824  1.0000
  H   H64       1.0  0.27201  0.78790  0.48347  1.0000
  N   N29       1.0  0.35998  0.86094  0.52496  1.0000
  N   N30       1.0  0.17684  0.75726  0.46160  1.0000
  H   H65       1.0  0.14919  0.74349  0.50295  1.0000
  H   H66       1.0  0.19759  0.79258  0.46265  1.0000
  O   O17       1.0  0.33794  0.87496  0.57663  1.0000
  O   O18       1.0  0.36136  0.82576  0.56157  1.0000
  C   C88       1.0  0.75168  0.53653  0.33082  1.0000
  C   C89       1.0  0.73212  0.55609  0.39469  1.0000
  C   C90       1.0  0.68218  0.54326  0.38875  1.0000
  H   H67       1.0  0.66717  0.55349  0.43949  1.0000
  C   C91       1.0  0.79727  0.53633  0.34333  1.0000
  C   C92       1.0  0.87581  0.51501  0.36217  1.0000
  C   C93       1.0  0.85081  0.51802  0.43921  1.0000
  C   C94       1.0  0.81116  0.52675  0.42824  1.0000
  H   H68       1.0  0.79016  0.52266  0.48348  1.0000
  N   N31       1.0  0.86317  0.50772  0.52498  1.0000
  N   N32       1.0  0.75953  0.58706  0.46180  1.0000
  H   H69       1.0  0.74583  0.60129  0.50249  1.0000
  H   H70       1.0  0.79489  0.60195  0.46197  1.0000
  O   O19       1.0  0.87724  0.54381  0.57658  1.0000
  O   O20       1.0  0.82799  0.47120  0.56166  1.0000
  C   C95       1.0  0.47472  0.21746  0.33089  1.0000
  C   C96       1.0  0.45513  0.17828  0.39465  1.0000
  C   C97       1.0  0.46797  0.14119  0.38862  1.0000
  H   H71       1.0  0.45765  0.11587  0.43925  1.0000
  C   C98       1.0  0.47484  0.26320  0.34343  1.0000
  C   C99       1.0  0.49611  0.36300  0.36223  1.0000
  C   C100      1.0  0.49317  0.33507  0.43932  1.0000
  C   C101      1.0  0.48451  0.28672  0.42832  1.0000
  H   H72       1.0  0.48858  0.26978  0.48355  1.0000
  N   N33       1.0  0.50349  0.35775  0.52507  1.0000
  N   N34       1.0  0.42406  0.17461  0.46163  1.0000
  H   H73       1.0  0.41018  0.14696  0.50296  1.0000
  H   H74       1.0  0.40949  0.19536  0.46267  1.0000
  O   O21       1.0  0.46743  0.33570  0.57672  1.0000
  O   O22       1.0  0.54005  0.35913  0.56169  1.0000
  C   C102      1.0  0.79375  0.25944  0.33087  1.0000
  C   C103      1.0  0.83288  0.27902  0.39474  1.0000
  C   C104      1.0  0.86997  0.32896  0.38877  1.0000
  H   H75       1.0  0.89523  0.34398  0.43950  1.0000
  C   C105      1.0  0.74796  0.21385  0.34339  1.0000
  C   C106      1.0  0.64817  0.13533  0.36222  1.0000
  C   C107      1.0  0.67611  0.16032  0.43930  1.0000
  C   C108      1.0  0.72449  0.19997  0.42831  1.0000
  H   H76       1.0  0.74140  0.22100  0.48353  1.0000
  N   N35       1.0  0.65343  0.14797  0.52505  1.0000
  N   N36       1.0  0.83643  0.25162  0.46186  1.0000
  H   H77       1.0  0.86437  0.26533  0.50254  1.0000
  H   H78       1.0  0.81597  0.21626  0.46205  1.0000
  O   O23       1.0  0.67546  0.13393  0.57670  1.0000
  O   O24       1.0  0.65208  0.18316  0.56167  1.0000
