data_image0
_chemical_formula_structural       HNHNC3NH3CHC3NH3CHN2HN2HC3NH3CHC3NH3CHN2HN2HC2NH4C2NH4C6HOC6OH5N4C6HOC6OH5N4C6HOC6OH5N4C6HOC6OH4N3C6HOC6OH4N3CN2CHCN2CHC4NH3CHC5NH3CHC2N2CHCN2CHC4NH3CHC5NH3CHC3N2C2HC2N2C2H
_chemical_formula_sum              "H80 N50 C120 O10"
_cell_length_a       32.7608
_cell_length_b       40.9879
_cell_length_c       14.8119
_cell_angle_alpha    88.6184
_cell_angle_beta     91.0813
_cell_angle_gamma    89.7156

_space_group_name_H-M_alt    "P 1"
_space_group_IT_number       1

loop_
  _space_group_symop_operation_xyz
  'x, y, z'

loop_
  _atom_site_type_symbol
  _atom_site_label
  _atom_site_symmetry_multiplicity
  _atom_site_fract_x
  _atom_site_fract_y
  _atom_site_fract_z
  _atom_site_occupancy
  H   H1        1.0  0.77913  0.36589  0.40101  1.0000
  N   N1        1.0  0.84984  0.34284  0.37111  1.0000
  H   H2        1.0  0.16303  0.66501  0.40086  1.0000
  N   N2        1.0  0.09174  0.68852  0.37117  1.0000
  C   C1        1.0  0.12621  0.11664  0.37755  1.0000
  C   C2        1.0  0.16387  0.13122  0.35613  1.0000
  C   C3        1.0  0.17071  0.16486  0.37126  1.0000
  N   N3        1.0  0.20748  0.17761  0.34868  1.0000
  H   H3        1.0  0.22872  0.16408  0.32331  1.0000
  H   H4        1.0  0.21485  0.19983  0.36160  1.0000
  H   H5        1.0  0.18620  0.11736  0.32814  1.0000
  C   C4        1.0  0.11761  0.08367  0.36286  1.0000
  H   H6        1.0  0.13976  0.06898  0.33799  1.0000
  C   C5        1.0  0.81539  0.91472  0.37778  1.0000
  C   C6        1.0  0.77738  0.90050  0.35632  1.0000
  C   C7        1.0  0.77084  0.86658  0.37126  1.0000
  N   N4        1.0  0.73370  0.85423  0.34858  1.0000
  H   H7        1.0  0.71207  0.86816  0.32285  1.0000
  H   H8        1.0  0.72663  0.83172  0.36082  1.0000
  H   H9        1.0  0.75457  0.91486  0.32834  1.0000
  C   C8        1.0  0.82371  0.94796  0.36325  1.0000
  H   H10       1.0  0.80115  0.96306  0.33823  1.0000
  N   N5        1.0  0.78379  0.15740  0.34408  1.0000
  N   N6        1.0  0.80857  0.13221  0.34421  1.0000
  H   H11       1.0  0.73625  0.20819  0.34283  1.0000
  N   N7        1.0  0.15723  0.87451  0.34460  1.0000
  N   N8        1.0  0.13246  0.89970  0.34464  1.0000
  H   H12       1.0  0.20469  0.82372  0.34325  1.0000
  C   C9        1.0  0.24751  0.48284  0.30993  1.0000
  C   C10       1.0  0.23924  0.50823  0.24638  1.0000
  C   C11       1.0  0.24318  0.54119  0.27152  1.0000
  N   N9        1.0  0.23590  0.56516  0.20802  1.0000
  H   H13       1.0  0.22935  0.56001  0.14561  1.0000
  H   H14       1.0  0.23649  0.58810  0.22271  1.0000
  H   H15       1.0  0.23203  0.50270  0.18096  1.0000
  C   C12       1.0  0.24335  0.44982  0.28988  1.0000
  H   H16       1.0  0.22696  0.44288  0.23413  1.0000
  C   C13       1.0  0.69304  0.54966  0.31001  1.0000
  C   C14       1.0  0.70112  0.52540  0.24695  1.0000
  C   C15       1.0  0.69773  0.49199  0.27203  1.0000
  N   N10       1.0  0.70477  0.46913  0.20898  1.0000
  H   H17       1.0  0.71075  0.47537  0.14681  1.0000
  H   H18       1.0  0.70430  0.44593  0.22365  1.0000
  H   H19       1.0  0.70781  0.53208  0.18185  1.0000
  C   C16       1.0  0.69690  0.58305  0.29011  1.0000
  H   H20       1.0  0.71271  0.59088  0.23481  1.0000
  N   N11       1.0  0.95700  0.34415  0.30603  1.0000
  N   N12       1.0  0.99611  0.34415  0.32660  1.0000
  H   H21       1.0  0.88508  0.33020  0.26651  1.0000
  N   N13       1.0  0.98348  0.68831  0.30611  1.0000
  N   N14       1.0  0.94471  0.68801  0.32666  1.0000
  H   H22       1.0  0.05468  0.70299  0.26661  1.0000
  C   C17       1.0  0.45170  0.32863  0.26580  1.0000
  C   C18       1.0  0.49452  0.32853  0.28317  1.0000
  N   N15       1.0  0.51967  0.32613  0.21156  1.0000
  H   H23       1.0  0.50881  0.32312  0.15067  1.0000
  H   H24       1.0  0.54905  0.32652  0.21815  1.0000
  H   H25       1.0  0.44100  0.32677  0.20070  1.0000
  H   H26       1.0  0.37362  0.34391  0.25257  1.0000
  C   C19       1.0  0.48806  0.70473  0.26545  1.0000
  C   C20       1.0  0.44555  0.70460  0.28287  1.0000
  N   N16       1.0  0.41916  0.70820  0.21124  1.0000
  H   H27       1.0  0.42897  0.71211  0.15028  1.0000
  H   H28       1.0  0.38990  0.70767  0.21785  1.0000
  H   H29       1.0  0.49764  0.70764  0.20031  1.0000
  H   H30       1.0  0.56589  0.68959  0.25227  1.0000
  C   C21       1.0  0.99274  0.01517  0.37088  1.0000
  C   C22       1.0  0.01470  0.98551  0.36100  1.0000
  C   C23       1.0  0.05780  0.98357  0.35751  1.0000
  C   C24       1.0  0.08062  0.01264  0.35943  1.0000
  C   C25       1.0  0.06059  0.04287  0.37045  1.0000
  C   C26       1.0  0.01768  0.04339  0.37859  1.0000
  H   H31       1.0  0.99921  0.96455  0.35084  1.0000
  O   O1        1.0  0.12208  0.01072  0.35611  1.0000
  C   C27       1.0  0.94873  0.01632  0.37092  1.0000
  C   C28       1.0  0.92392  0.98796  0.37873  1.0000
  C   C29       1.0  0.88088  0.98862  0.37066  1.0000
  C   C30       1.0  0.86065  0.01904  0.35956  1.0000
  C   C31       1.0  0.88344  0.04814  0.35755  1.0000
  C   C32       1.0  0.92660  0.04615  0.36103  1.0000
  O   O2        1.0  0.81914  0.02103  0.35621  1.0000
  H   H32       1.0  0.94192  0.06727  0.35060  1.0000
  H   H33       1.0  0.13203  0.00869  0.41909  1.0000
  H   H34       1.0  0.81027  0.02198  0.41919  1.0000
  H   H35       1.0  0.00483  0.06551  0.39082  1.0000
  H   H36       1.0  0.93699  0.96563  0.39099  1.0000
  N   N17       1.0  0.86234  0.07679  0.35548  1.0000
  N   N18       1.0  0.86210  0.95924  0.37541  1.0000
  N   N19       1.0  0.07944  0.07218  0.37511  1.0000
  N   N20       1.0  0.07888  0.95496  0.35566  1.0000
  C   C33       1.0  0.19679  0.32526  0.36529  1.0000
  C   C34       1.0  0.19558  0.29077  0.38012  1.0000
  C   C35       1.0  0.15938  0.27318  0.39723  1.0000
  C   C36       1.0  0.12199  0.29065  0.40104  1.0000
  C   C37       1.0  0.12059  0.32470  0.38343  1.0000
  C   C38       1.0  0.15740  0.34079  0.36204  1.0000
  H   H37       1.0  0.22165  0.27726  0.37626  1.0000
  O   O3        1.0  0.08569  0.27459  0.40298  1.0000
  C   C39       1.0  0.23495  0.34264  0.35536  1.0000
  C   C40       1.0  0.27463  0.32854  0.37380  1.0000
  C   C41       1.0  0.31175  0.34589  0.36281  1.0000
  C   C42       1.0  0.30927  0.38002  0.34725  1.0000
  C   C43       1.0  0.27128  0.39533  0.33120  1.0000
  C   C44       1.0  0.23549  0.37636  0.32935  1.0000
  O   O4        1.0  0.34358  0.39880  0.34876  1.0000
  H   H38       1.0  0.20918  0.38884  0.31560  1.0000
  H   H39       1.0  0.07846  0.26950  0.34004  1.0000
  H   H40       1.0  0.34994  0.40274  0.41273  1.0000
  H   H41       1.0  0.15458  0.36531  0.35171  1.0000
  H   H42       1.0  0.27760  0.30458  0.39264  1.0000
  N   N21       1.0  0.27039  0.42834  0.32713  1.0000
  N   N22       1.0  0.34926  0.33128  0.37360  1.0000
  N   N23       1.0  0.08410  0.34119  0.37913  1.0000
  N   N24       1.0  0.16253  0.23999  0.40215  1.0000
  C   C45       1.0  0.74468  0.70628  0.36531  1.0000
  C   C46       1.0  0.74615  0.74050  0.38013  1.0000
  C   C47       1.0  0.78264  0.75780  0.39723  1.0000
  C   C48       1.0  0.82010  0.74027  0.40106  1.0000
  C   C49       1.0  0.82120  0.70652  0.38346  1.0000
  C   C50       1.0  0.78402  0.69080  0.36206  1.0000
  H   H43       1.0  0.72001  0.75408  0.37627  1.0000
  O   O5        1.0  0.85643  0.75629  0.40301  1.0000
  C   C51       1.0  0.70635  0.68907  0.35535  1.0000
  C   C52       1.0  0.66698  0.70286  0.37365  1.0000
  C   C53       1.0  0.62967  0.68572  0.36252  1.0000
  C   C54       1.0  0.63186  0.65187  0.34691  1.0000
  C   C55       1.0  0.66958  0.63681  0.33106  1.0000
  C   C56       1.0  0.70536  0.65579  0.32941  1.0000
  O   O6        1.0  0.59756  0.63307  0.34829  1.0000
  H   H44       1.0  0.73144  0.64354  0.31582  1.0000
  H   H45       1.0  0.86258  0.76247  0.34008  1.0000
  H   H46       1.0  0.59225  0.62801  0.41223  1.0000
  H   H47       1.0  0.78667  0.66647  0.35170  1.0000
  H   H48       1.0  0.66434  0.72649  0.39246  1.0000
  N   N25       1.0  0.67037  0.60387  0.32697  1.0000
  N   N26       1.0  0.59235  0.70018  0.37322  1.0000
  N   N27       1.0  0.85761  0.69011  0.37917  1.0000
  N   N28       1.0  0.77958  0.79090  0.40213  1.0000
  C   C57       1.0  0.73680  0.32761  0.37103  1.0000
  C   C58       1.0  0.73830  0.29348  0.35466  1.0000
  C   C59       1.0  0.77529  0.27692  0.33977  1.0000
  C   C60       1.0  0.81207  0.29437  0.33152  1.0000
  C   C61       1.0  0.81346  0.32731  0.35703  1.0000
  C   C62       1.0  0.77627  0.34257  0.38002  1.0000
  H   H49       1.0  0.71288  0.27940  0.35876  1.0000
  O   O7        1.0  0.84752  0.27761  0.31887  1.0000
  C   C63       1.0  0.69847  0.34508  0.37872  1.0000
  C   C64       1.0  0.65881  0.33068  0.36805  1.0000
  C   C65       1.0  0.62155  0.34843  0.37323  1.0000
  C   C66       1.0  0.62373  0.38286  0.37669  1.0000
  C   C67       1.0  0.66171  0.39845  0.38481  1.0000
  C   C68       1.0  0.69775  0.37946  0.39083  1.0000
  O   O8        1.0  0.58949  0.40185  0.36764  1.0000
  H   H50       1.0  0.72410  0.39235  0.39197  1.0000
  H   H51       1.0  0.84767  0.27197  0.25472  1.0000
  H   H52       1.0  0.58330  0.40383  0.30248  1.0000
  H   H53       1.0  0.65599  0.30625  0.35928  1.0000
  N   N29       1.0  0.66314  0.43134  0.37340  1.0000
  N   N30       1.0  0.58466  0.33312  0.36487  1.0000
  N   N31       1.0  0.77915  0.24423  0.34664  1.0000
  C   C69       1.0  0.20476  0.70390  0.37118  1.0000
  C   C70       1.0  0.20289  0.73833  0.35496  1.0000
  C   C71       1.0  0.16562  0.75510  0.34012  1.0000
  C   C72       1.0  0.12873  0.73775  0.33182  1.0000
  C   C73       1.0  0.12785  0.70435  0.35716  1.0000
  C   C74       1.0  0.16547  0.68872  0.38006  1.0000
  H   H54       1.0  0.22836  0.75237  0.35917  1.0000
  O   O9        1.0  0.09303  0.75469  0.31932  1.0000
  C   C75       1.0  0.24326  0.68636  0.37882  1.0000
  C   C76       1.0  0.28269  0.70101  0.36806  1.0000
  C   C77       1.0  0.32009  0.68324  0.37308  1.0000
  C   C78       1.0  0.31805  0.64874  0.37636  1.0000
  C   C79       1.0  0.28026  0.63295  0.38467  1.0000
  C   C80       1.0  0.24428  0.65176  0.39095  1.0000
  O   O10       1.0  0.35217  0.62998  0.36707  1.0000
  H   H55       1.0  0.21800  0.63879  0.39221  1.0000
  H   H56       1.0  0.09174  0.76150  0.25519  1.0000
  H   H57       1.0  0.35719  0.62919  0.30188  1.0000
  H   H58       1.0  0.28529  0.72560  0.35929  1.0000
  N   N32       1.0  0.27874  0.60028  0.37297  1.0000
  N   N33       1.0  0.35680  0.69874  0.36468  1.0000
  N   N34       1.0  0.16179  0.78766  0.34716  1.0000
  C   C81       1.0  0.13852  0.18295  0.41046  1.0000
  N   N35       1.0  0.10362  0.16654  0.42978  1.0000
  N   N36       1.0  0.09756  0.13580  0.41461  1.0000
  C   C82       1.0  0.13574  0.21656  0.42714  1.0000
  H   H59       1.0  0.10980  0.22400  0.45779  1.0000
  C   C83       1.0  0.80370  0.84781  0.41043  1.0000
  N   N37       1.0  0.83892  0.86389  0.42984  1.0000
  N   N38       1.0  0.84469  0.89491  0.41480  1.0000
  C   C84       1.0  0.80679  0.81390  0.42706  1.0000
  H   H60       1.0  0.83327  0.80594  0.45770  1.0000
  C   C85       1.0  0.84899  0.13459  0.36493  1.0000
  C   C86       1.0  0.86374  0.16532  0.39023  1.0000
  C   C87       1.0  0.83688  0.19215  0.39665  1.0000
  C   C88       1.0  0.79558  0.18800  0.36653  1.0000
  N   N39       1.0  0.85144  0.21910  0.43834  1.0000
  H   H61       1.0  0.87938  0.21976  0.46184  1.0000
  H   H62       1.0  0.83281  0.23487  0.46288  1.0000
  H   H63       1.0  0.89361  0.16758  0.41091  1.0000
  C   C89       1.0  0.87560  0.10770  0.36482  1.0000
  H   H64       1.0  0.90563  0.11153  0.38084  1.0000
  C   C90       1.0  0.76641  0.21321  0.35431  1.0000
  C   C91       1.0  0.09239  0.89698  0.36531  1.0000
  C   C92       1.0  0.07804  0.86582  0.39063  1.0000
  C   C93       1.0  0.10500  0.83887  0.39719  1.0000
  C   C94       1.0  0.14580  0.84352  0.36713  1.0000
  N   N40       1.0  0.09112  0.81119  0.43880  1.0000
  H   H65       1.0  0.06357  0.81013  0.46221  1.0000
  H   H66       1.0  0.11015  0.79498  0.46337  1.0000
  H   H67       1.0  0.04852  0.86322  0.41125  1.0000
  C   C95       1.0  0.06581  0.92389  0.36521  1.0000
  H   H68       1.0  0.03602  0.91978  0.38097  1.0000
  C   C96       1.0  0.17475  0.81851  0.35499  1.0000
  C   C97       1.0  0.25147  0.54725  0.36433  1.0000
  N   N41       1.0  0.25704  0.52135  0.42226  1.0000
  N   N42       1.0  0.25619  0.49113  0.39636  1.0000
  C   C98       1.0  0.25067  0.57844  0.40065  1.0000
  H   H69       1.0  0.24138  0.58108  0.46574  1.0000
  C   C99       1.0  0.69012  0.48430  0.36444  1.0000
  N   N43       1.0  0.68468  0.50917  0.42202  1.0000
  N   N44       1.0  0.68503  0.53984  0.39605  1.0000
  C   C100      1.0  0.69201  0.45249  0.40081  1.0000
  H   H70       1.0  0.70162  0.44884  0.46646  1.0000
  C   C101      1.0  0.01024  0.34317  0.41328  1.0000
  C   C102      1.0  0.98053  0.34330  0.48130  1.0000
  C   C103      1.0  0.93810  0.34509  0.45994  1.0000
  C   C104      1.0  0.92618  0.34425  0.36691  1.0000
  N   N45       1.0  0.91169  0.34498  0.52976  1.0000
  H   H71       1.0  0.92151  0.34521  0.59222  1.0000
  H   H72       1.0  0.88249  0.34642  0.52055  1.0000
  H   H73       1.0  0.98999  0.34192  0.54762  1.0000
  C   C105      1.0  0.05171  0.33655  0.43424  1.0000
  H   H74       1.0  0.05812  0.32634  0.49679  1.0000
  C   C106      1.0  0.88648  0.33896  0.33069  1.0000
  C   C107      1.0  0.93206  0.68750  0.41332  1.0000
  C   C108      1.0  0.96293  0.68618  0.48136  1.0000
  C   C109      1.0  0.00499  0.68472  0.46002  1.0000
  C   C110      1.0  0.01535  0.68709  0.36698  1.0000
  N   N46       1.0  0.03261  0.68361  0.52983  1.0000
  H   H75       1.0  0.02386  0.68234  0.59229  1.0000
  H   H76       1.0  0.06165  0.68224  0.52061  1.0000
  H   H77       1.0  0.95461  0.68644  0.54767  1.0000
  C   C111      1.0  0.89095  0.69378  0.43425  1.0000
  H   H78       1.0  0.88562  0.70291  0.49680  1.0000
  C   C112      1.0  0.05440  0.69309  0.33077  1.0000
  C   C113      1.0  0.42327  0.33133  0.33601  1.0000
  C   C114      1.0  0.50818  0.33389  0.37352  1.0000
  N   N47       1.0  0.47856  0.33653  0.43676  1.0000
  N   N48       1.0  0.43911  0.33481  0.42050  1.0000
  C   C115      1.0  0.38121  0.33618  0.31712  1.0000
  C   C116      1.0  0.54847  0.34127  0.40269  1.0000
  H   H79       1.0  0.55092  0.35404  0.46118  1.0000
  C   C117      1.0  0.51770  0.70084  0.33565  1.0000
  C   C118      1.0  0.43343  0.69782  0.37330  1.0000
  N   N49       1.0  0.46415  0.69408  0.43650  1.0000
  N   N50       1.0  0.50333  0.69600  0.42019  1.0000
  C   C119      1.0  0.55943  0.69625  0.31678  1.0000
  C   C120      1.0  0.39364  0.68995  0.40252  1.0000
  H   H80       1.0  0.39221  0.67618  0.46106  1.0000
