data_image0
_chemical_formula_structural       CNO2C2HCHCHOC3HNO2CHCNCN3CN2C2NO2C2HOCHC7HNO2CHC3HNO2CHC2HCHCNO2C3HNO2C3HNO2CHC3HNO2CHC3HNOCHC3HNO2CHC3HNO2CHC3HNO2CHC3HNO2CHC3HNO2CHC3HNO2CHC3HNO2CHC3HNO2CHC3HNO2CHCNCNCN4CNCNCN5CNCN5CNCN4CNCNCN4CNCNCN5CNCN5CNCN4CN2CNCN3CNCNCN4CNCNCN4C3HNO2CHC3HNO2CHCH2C2NO2CHC3HNOCHC3HNO2CHC3HNO2CHC3HNO2C3HNO2CHC3HNO2CHC3HNO2CHC3HNO2CHC3HNO2CHC3HNO2CHC3HNO2CHC3HNO2CHC3HNO2CHC3HNO2CH
_chemical_formula_sum              "C180 N108 O72 H72"
_cell_length_a       32.4511
_cell_length_b       84.1431
_cell_length_c       14.6681
_cell_angle_alpha    90
_cell_angle_beta     90
_cell_angle_gamma    90

_space_group_name_H-M_alt    "P 1"
_space_group_IT_number       1

loop_
  _space_group_symop_operation_xyz
  'x, y, z'

loop_
  _atom_site_type_symbol
  _atom_site_label
  _atom_site_symmetry_multiplicity
  _atom_site_fract_x
  _atom_site_fract_y
  _atom_site_fract_z
  _atom_site_occupancy
  C   C1        1.0  0.04138  0.68930  0.27851  1.0000
  N   N1        1.0  0.06921  0.69119  0.20473  1.0000
  O   O1        1.0  0.06433  0.68046  0.14609  1.0000
  O   O2        1.0  0.06522  0.70447  0.16647  1.0000
  C   C2        1.0  0.05309  0.33405  0.33513  1.0000
  C   C3        1.0  0.02426  0.33214  0.26387  1.0000
  H   H1        1.0  0.03469  0.33018  0.19895  1.0000
  C   C4        1.0  0.09546  0.33123  0.31999  1.0000
  H   H2        1.0  0.10393  0.32433  0.26559  1.0000
  C   C5        1.0  0.09370  0.11934  0.35043  1.0000
  H   H3        1.0  0.07925  0.12186  0.29000  1.0000
  O   O3        1.0  0.08800  0.88449  0.14847  1.0000
  C   C6        1.0  0.01861  0.99440  0.34805  1.0000
  C   C7        1.0  0.03346  0.00500  0.27958  1.0000
  C   C8        1.0  0.02576  0.02161  0.28586  1.0000
  H   H4        1.0  0.03619  0.02890  0.23496  1.0000
  N   N2        1.0  0.05522  0.99878  0.20369  1.0000
  O   O4        1.0  0.03672  0.00154  0.13006  1.0000
  O   O5        1.0  0.09108  0.00434  0.19869  1.0000
  C   C9        1.0  0.02881  0.97810  0.34428  1.0000
  H   H5        1.0  0.05760  0.97525  0.32779  1.0000
  C   C10       1.0  0.01563  0.07159  0.35566  1.0000
  N   N3        1.0  0.04985  0.08037  0.37504  1.0000
  C   C11       1.0  0.04929  0.09655  0.37412  1.0000
  N   N4        1.0  0.01277  0.10395  0.35760  1.0000
  N   N5        1.0  0.01965  0.05573  0.35363  1.0000
  N   N6        1.0  0.08482  0.10485  0.38616  1.0000
  C   C12       1.0  0.04475  0.92671  0.33912  1.0000
  N   N7        1.0  0.04254  0.94292  0.33659  1.0000
  N   N8        1.0  0.08112  0.91899  0.32553  1.0000
  C   C13       1.0  0.05655  0.68808  0.36929  1.0000
  C   C14       1.0  0.02770  0.68660  0.44196  1.0000
  N   N9        1.0  0.04239  0.68548  0.53276  1.0000
  O   O6        1.0  0.03279  0.67245  0.56889  1.0000
  O   O7        1.0  0.02890  0.69659  0.58155  1.0000
  C   C15       1.0  0.09869  0.69122  0.38663  1.0000
  C   C16       1.0  0.03761  0.33685  0.42365  1.0000
  H   H6        1.0  0.05770  0.33755  0.47731  1.0000
  O   O8        1.0  0.09164  0.13944  0.56619  1.0000
  C   C17       1.0  0.09194  0.90484  0.36360  1.0000
  H   H7        1.0  0.07820  0.90233  0.42482  1.0000
  C   C18       1.0  0.73850  0.17536  0.32837  1.0000
  C   C19       1.0  0.28409  0.84713  0.32727  1.0000
  C   C20       1.0  0.23847  0.67546  0.33081  1.0000
  C   C21       1.0  0.78389  0.34702  0.32943  1.0000
  C   C22       1.0  0.46945  0.18825  0.33451  1.0000
  C   C23       1.0  0.49842  0.19025  0.26360  1.0000
  C   C24       1.0  0.54148  0.18903  0.27888  1.0000
  H   H8        1.0  0.48811  0.19224  0.19862  1.0000
  N   N10       1.0  0.56939  0.19088  0.20520  1.0000
  O   O9        1.0  0.56452  0.18013  0.14665  1.0000
  O   O10       1.0  0.56547  0.20415  0.16677  1.0000
  C   C25       1.0  0.42710  0.19103  0.31899  1.0000
  H   H9        1.0  0.41876  0.19805  0.26499  1.0000
  C   C26       1.0  0.55301  0.83430  0.33490  1.0000
  C   C27       1.0  0.52415  0.83229  0.26381  1.0000
  C   C28       1.0  0.48106  0.83347  0.27885  1.0000
  H   H10       1.0  0.53454  0.83029  0.19891  1.0000
  N   N11       1.0  0.45324  0.83160  0.20503  1.0000
  O   O11       1.0  0.45810  0.84235  0.14651  1.0000
  O   O12       1.0  0.45727  0.81833  0.16661  1.0000
  C   C29       1.0  0.59540  0.83155  0.31962  1.0000
  H   H11       1.0  0.60381  0.82453  0.26565  1.0000
  C   C30       1.0  0.96942  0.68850  0.33457  1.0000
  C   C31       1.0  0.99829  0.69050  0.26350  1.0000
  H   H12       1.0  0.98791  0.69254  0.19863  1.0000
  C   C32       1.0  0.92706  0.69134  0.31939  1.0000
  H   H13       1.0  0.91863  0.69829  0.26520  1.0000
  C   C33       1.0  0.98117  0.33337  0.27874  1.0000
  N   N12       1.0  0.95339  0.33158  0.20478  1.0000
  O   O13       1.0  0.95839  0.34237  0.14653  1.0000
  O   O14       1.0  0.95734  0.31834  0.16606  1.0000
  C   C34       1.0  0.13057  0.12764  0.37069  1.0000
  C   C35       1.0  0.15699  0.13315  0.29979  1.0000
  C   C36       1.0  0.19091  0.14320  0.32051  1.0000
  H   H14       1.0  0.20907  0.14717  0.26819  1.0000
  N   N13       1.0  0.15010  0.12796  0.20905  1.0000
  O   O15       1.0  0.18011  0.12014  0.17865  1.0000
  O   O16       1.0  0.14321  0.13943  0.15636  1.0000
  C   C37       1.0  0.89190  0.89489  0.37285  1.0000
  C   C38       1.0  0.86530  0.88947  0.30206  1.0000
  C   C39       1.0  0.83139  0.87942  0.32286  1.0000
  H   H15       1.0  0.81310  0.87550  0.27061  1.0000
  N   N14       1.0  0.87200  0.89471  0.21136  1.0000
  O   O17       1.0  0.84195  0.90256  0.18145  1.0000
  O   O18       1.0  0.87874  0.88327  0.15831  1.0000
  C   C40       1.0  0.92877  0.90319  0.35228  1.0000
  H   H16       1.0  0.94274  0.90082  0.29115  1.0000
  C   C41       1.0  0.82981  0.14880  0.30559  1.0000
  C   C42       1.0  0.85694  0.14338  0.23697  1.0000
  C   C43       1.0  0.88698  0.13143  0.25356  1.0000
  H   H17       1.0  0.85442  0.14795  0.17254  1.0000
  N   N15       1.0  0.91332  0.12630  0.18233  1.0000
  O   O19       1.0  0.89314  0.11987  0.11918  1.0000
  O   O20       1.0  0.93394  0.13758  0.14956  1.0000
  C   C44       1.0  0.80283  0.16171  0.28934  1.0000
  H   H18       1.0  0.80932  0.16928  0.23661  1.0000
  C   C45       1.0  0.19265  0.87366  0.30377  1.0000
  C   C46       1.0  0.16527  0.87892  0.23522  1.0000
  C   C47       1.0  0.13517  0.89086  0.25156  1.0000
  H   H19       1.0  0.16771  0.87426  0.17097  1.0000
  N   N16       1.0  0.10861  0.89585  0.18042  1.0000
  O   O21       1.0  0.12859  0.90221  0.11671  1.0000
  C   C48       1.0  0.21982  0.86080  0.28767  1.0000
  H   H20       1.0  0.21322  0.85312  0.23550  1.0000
  C   C49       1.0  0.63049  0.62766  0.36929  1.0000
  C   C50       1.0  0.65708  0.63298  0.29824  1.0000
  C   C51       1.0  0.69098  0.64307  0.31849  1.0000
  H   H21       1.0  0.70926  0.64691  0.26606  1.0000
  N   N17       1.0  0.65033  0.62757  0.20787  1.0000
  O   O22       1.0  0.68038  0.61968  0.17837  1.0000
  O   O23       1.0  0.64356  0.63892  0.15422  1.0000
  C   C52       1.0  0.59356  0.61938  0.34940  1.0000
  H   H22       1.0  0.57910  0.62185  0.28892  1.0000
  C   C53       1.0  0.39193  0.39488  0.37138  1.0000
  C   C54       1.0  0.36518  0.38964  0.30043  1.0000
  C   C55       1.0  0.33130  0.37954  0.32076  1.0000
  H   H23       1.0  0.31290  0.37574  0.26838  1.0000
  N   N18       1.0  0.37174  0.39509  0.21009  1.0000
  O   O24       1.0  0.34165  0.40302  0.18104  1.0000
  O   O25       1.0  0.37838  0.38377  0.15614  1.0000
  C   C56       1.0  0.42888  0.40314  0.35115  1.0000
  H   H24       1.0  0.44285  0.40090  0.28988  1.0000
  C   C57       1.0  0.32977  0.64889  0.30804  1.0000
  C   C58       1.0  0.35698  0.64360  0.23923  1.0000
  C   C59       1.0  0.38699  0.63162  0.25522  1.0000
  H   H25       1.0  0.35455  0.64831  0.17509  1.0000
  N   N19       1.0  0.41343  0.62663  0.18383  1.0000
  O   O26       1.0  0.39333  0.62034  0.12010  1.0000
  O   O27       1.0  0.43411  0.63798  0.15197  1.0000
  C   C60       1.0  0.30286  0.66184  0.29244  1.0000
  H   H26       1.0  0.30942  0.66951  0.24020  1.0000
  C   C61       1.0  0.69250  0.37354  0.30605  1.0000
  C   C62       1.0  0.66504  0.37869  0.23734  1.0000
  C   C63       1.0  0.63501  0.39066  0.25309  1.0000
  H   H27       1.0  0.66733  0.37388  0.17343  1.0000
  N   N20       1.0  0.60832  0.39551  0.18184  1.0000
  O   O28       1.0  0.62818  0.40171  0.11747  1.0000
  O   O29       1.0  0.58762  0.38409  0.15094  1.0000
  C   C64       1.0  0.71946  0.36059  0.29071  1.0000
  H   H28       1.0  0.71282  0.35285  0.23889  1.0000
  C   C65       1.0  0.28132  0.24601  0.35777  1.0000
  C   C66       1.0  0.28652  0.25750  0.28852  1.0000
  C   C67       1.0  0.26672  0.27250  0.29227  1.0000
  H   H29       1.0  0.30457  0.25490  0.23320  1.0000
  N   N21       1.0  0.27136  0.28358  0.22014  1.0000
  O   O30       1.0  0.30840  0.28755  0.20973  1.0000
  O   O31       1.0  0.25798  0.27811  0.14609  1.0000
  C   C68       1.0  0.30210  0.23157  0.35250  1.0000
  H   H30       1.0  0.33066  0.23158  0.32774  1.0000
  C   C69       1.0  0.74114  0.77654  0.35808  1.0000
  C   C70       1.0  0.73584  0.76507  0.28875  1.0000
  C   C71       1.0  0.75565  0.75007  0.29222  1.0000
  H   H31       1.0  0.71770  0.76768  0.23359  1.0000
  N   N22       1.0  0.75089  0.73901  0.22005  1.0000
  O   O32       1.0  0.71383  0.73505  0.20989  1.0000
  O   O33       1.0  0.76415  0.74449  0.14593  1.0000
  C   C72       1.0  0.72037  0.79099  0.35305  1.0000
  H   H32       1.0  0.69182  0.79100  0.32823  1.0000
  C   C73       1.0  0.77957  0.27661  0.34150  1.0000
  C   C74       1.0  0.78573  0.26524  0.27097  1.0000
  C   C75       1.0  0.76721  0.25001  0.27757  1.0000
  H   H33       1.0  0.77149  0.24205  0.22567  1.0000
  N   N23       1.0  0.80990  0.26935  0.19392  1.0000
  O   O34       1.0  0.78916  0.26876  0.12160  1.0000
  O   O35       1.0  0.84063  0.26037  0.18585  1.0000
  C   C76       1.0  0.80035  0.29110  0.33879  1.0000
  H   H34       1.0  0.83095  0.29083  0.33476  1.0000
  C   C77       1.0  0.24297  0.74588  0.34158  1.0000
  C   C78       1.0  0.23676  0.75723  0.27101  1.0000
  C   C79       1.0  0.25528  0.77247  0.27746  1.0000
  H   H35       1.0  0.25095  0.78043  0.22555  1.0000
  N   N24       1.0  0.21253  0.75312  0.19407  1.0000
  O   O36       1.0  0.23321  0.75370  0.12168  1.0000
  O   O37       1.0  0.18179  0.76209  0.18610  1.0000
  C   C80       1.0  0.22218  0.73139  0.33905  1.0000
  H   H36       1.0  0.19158  0.73167  0.33507  1.0000
  C   C81       1.0  0.51859  0.49440  0.34813  1.0000
  C   C82       1.0  0.53359  0.50502  0.27990  1.0000
  C   C83       1.0  0.52587  0.52163  0.28619  1.0000
  H   H37       1.0  0.53643  0.52893  0.23546  1.0000
  N   N25       1.0  0.55554  0.49881  0.20424  1.0000
  O   O38       1.0  0.53722  0.50158  0.13040  1.0000
  O   O39       1.0  0.59141  0.50438  0.19971  1.0000
  C   C84       1.0  0.52879  0.47810  0.34439  1.0000
  H   H38       1.0  0.55762  0.47525  0.32818  1.0000
  C   C85       1.0  0.28778  0.17588  0.38425  1.0000
  N   N26       1.0  0.32875  0.17317  0.37212  1.0000
  C   C86       1.0  0.35592  0.18531  0.36033  1.0000
  N   N27       1.0  0.34117  0.20045  0.35908  1.0000
  C   C87       1.0  0.30045  0.20361  0.37303  1.0000
  N   N28       1.0  0.27425  0.19121  0.38671  1.0000
  N   N29       1.0  0.26148  0.16336  0.38654  1.0000
  N   N30       1.0  0.28519  0.21828  0.37500  1.0000
  N   N31       1.0  0.39690  0.18220  0.35776  1.0000
  C   C88       1.0  0.73464  0.84666  0.38599  1.0000
  N   N32       1.0  0.69368  0.84937  0.37367  1.0000
  C   C89       1.0  0.66653  0.83724  0.36150  1.0000
  N   N33       1.0  0.68130  0.82211  0.36003  1.0000
  C   C90       1.0  0.72200  0.81894  0.37413  1.0000
  N   N34       1.0  0.74818  0.83134  0.38818  1.0000
  N   N35       1.0  0.76091  0.85920  0.38857  1.0000
  N   N36       1.0  0.73726  0.80427  0.37585  1.0000
  N   N37       1.0  0.62555  0.84035  0.35874  1.0000
  N   N38       1.0  0.69747  0.17264  0.33987  1.0000
  C   C91       1.0  0.67017  0.18476  0.35070  1.0000
  N   N39       1.0  0.68485  0.19990  0.35141  1.0000
  C   C92       1.0  0.72559  0.20311  0.33829  1.0000
  N   N40       1.0  0.75194  0.19071  0.32554  1.0000
  N   N41       1.0  0.76466  0.16278  0.32646  1.0000
  N   N42       1.0  0.74041  0.21788  0.33603  1.0000
  N   N43       1.0  0.62912  0.18173  0.35143  1.0000
  N   N44       1.0  0.32511  0.84985  0.33899  1.0000
  C   C93       1.0  0.35240  0.83773  0.35011  1.0000
  N   N45       1.0  0.33768  0.82259  0.35089  1.0000
  C   C94       1.0  0.29695  0.81938  0.33759  1.0000
  N   N46       1.0  0.27064  0.83179  0.32455  1.0000
  N   N47       1.0  0.25794  0.85972  0.32500  1.0000
  N   N48       1.0  0.28213  0.80461  0.33547  1.0000
  N   N49       1.0  0.39346  0.84073  0.35104  1.0000
  C   C95       1.0  0.78766  0.67600  0.38175  1.0000
  N   N50       1.0  0.82876  0.67337  0.37129  1.0000
  C   C96       1.0  0.85586  0.68555  0.36017  1.0000
  N   N51       1.0  0.84092  0.70066  0.35807  1.0000
  C   C97       1.0  0.80007  0.70375  0.37069  1.0000
  N   N52       1.0  0.77391  0.69130  0.38291  1.0000
  N   N53       1.0  0.76148  0.66344  0.38399  1.0000
  N   N54       1.0  0.78438  0.71836  0.36960  1.0000
  N   N55       1.0  0.89687  0.68248  0.35806  1.0000
  C   C98       1.0  0.23478  0.34654  0.38339  1.0000
  N   N56       1.0  0.19369  0.34918  0.37277  1.0000
  C   C99       1.0  0.16662  0.33699  0.36127  1.0000
  N   N57       1.0  0.18157  0.32188  0.35891  1.0000
  C   C100      1.0  0.22241  0.31880  0.37168  1.0000
  N   N58       1.0  0.24855  0.33124  0.38428  1.0000
  N   N59       1.0  0.26094  0.35911  0.38593  1.0000
  N   N60       1.0  0.23811  0.30419  0.37036  1.0000
  N   N61       1.0  0.12560  0.34006  0.35903  1.0000
  N   N62       1.0  0.19731  0.67281  0.34064  1.0000
  C   C101      1.0  0.17010  0.68499  0.35073  1.0000
  N   N63       1.0  0.18498  0.70011  0.35222  1.0000
  C   C102      1.0  0.22584  0.70324  0.34035  1.0000
  N   N64       1.0  0.25214  0.69078  0.32913  1.0000
  N   N65       1.0  0.26454  0.66284  0.32894  1.0000
  N   N66       1.0  0.24111  0.71793  0.34107  1.0000
  N   N67       1.0  0.12900  0.68203  0.35103  1.0000
  N   N68       1.0  0.82502  0.34969  0.33937  1.0000
  C   C103      1.0  0.85228  0.33754  0.34994  1.0000
  N   N69       1.0  0.83745  0.32242  0.35174  1.0000
  C   C104      1.0  0.79661  0.31926  0.33972  1.0000
  N   N70       1.0  0.77027  0.33169  0.32808  1.0000
  N   N71       1.0  0.75779  0.35962  0.32718  1.0000
  N   N72       1.0  0.78138  0.30455  0.34066  1.0000
  N   N73       1.0  0.89334  0.34055  0.35040  1.0000
  C   C105      1.0  0.97755  0.09570  0.34010  1.0000
  N   N74       1.0  0.97982  0.07951  0.33647  1.0000
  N   N75       1.0  0.94111  0.10342  0.32751  1.0000
  C   C106      1.0  0.00697  0.95083  0.35809  1.0000
  N   N76       1.0  0.97299  0.94203  0.37926  1.0000
  C   C107      1.0  0.97338  0.92586  0.37679  1.0000
  N   N77       1.0  0.00966  0.91847  0.35782  1.0000
  N   N78       1.0  0.00303  0.96670  0.35926  1.0000
  N   N79       1.0  0.93790  0.91755  0.38946  1.0000
  C   C108      1.0  0.51558  0.57160  0.35555  1.0000
  N   N80       1.0  0.54984  0.58039  0.37448  1.0000
  C   C109      1.0  0.54926  0.59657  0.37356  1.0000
  N   N81       1.0  0.51269  0.60396  0.35749  1.0000
  C   C110      1.0  0.47745  0.59570  0.34039  1.0000
  N   N82       1.0  0.47972  0.57951  0.33674  1.0000
  N   N83       1.0  0.51960  0.55573  0.35347  1.0000
  N   N84       1.0  0.44098  0.60342  0.32819  1.0000
  N   N85       1.0  0.58481  0.60487  0.38521  1.0000
  C   C111      1.0  0.50694  0.45083  0.35789  1.0000
  N   N86       1.0  0.47292  0.44202  0.37860  1.0000
  C   C112      1.0  0.47333  0.42585  0.37611  1.0000
  N   N87       1.0  0.50968  0.41847  0.35764  1.0000
  C   C113      1.0  0.54480  0.42672  0.33939  1.0000
  N   N88       1.0  0.54258  0.44292  0.33684  1.0000
  N   N89       1.0  0.50299  0.46670  0.35907  1.0000
  N   N90       1.0  0.58120  0.41900  0.32621  1.0000
  N   N91       1.0  0.43785  0.41752  0.38837  1.0000
  C   C114      1.0  0.55652  0.18783  0.36977  1.0000
  C   C115      1.0  0.52760  0.18642  0.44232  1.0000
  C   C116      1.0  0.48477  0.18544  0.42316  1.0000
  H   H39       1.0  0.46454  0.18465  0.47652  1.0000
  N   N92       1.0  0.54221  0.18532  0.53320  1.0000
  O   O40       1.0  0.53251  0.17231  0.56943  1.0000
  O   O41       1.0  0.52871  0.19646  0.58179  1.0000
  C   C117      1.0  0.59871  0.19083  0.38728  1.0000
  H   H40       1.0  0.60652  0.19721  0.44418  1.0000
  C   C118      1.0  0.46590  0.83467  0.36964  1.0000
  C   C119      1.0  0.49472  0.83613  0.44235  1.0000
  C   C120      1.0  0.53758  0.83714  0.42343  1.0000
  H   H41       1.0  0.55774  0.83795  0.47690  1.0000
  N   N93       1.0  0.48002  0.83724  0.53315  1.0000
  O   O42       1.0  0.48961  0.85026  0.56937  1.0000
  O   O43       1.0  0.49352  0.82612  0.58187  1.0000
  C   C121      1.0  0.42374  0.83156  0.38693  1.0000
  H   H42       1.0  0.41588  0.82534  0.44433  1.0000
  C   C122      1.0  0.98483  0.68560  0.42305  1.0000
  H   H43       1.0  0.96470  0.68484  0.47661  1.0000
  H   H44       1.0  0.10649  0.69744  0.44406  1.0000
  C   C123      1.0  0.96593  0.33449  0.36950  1.0000
  C   C124      1.0  0.99473  0.33586  0.44234  1.0000
  N   N94       1.0  0.97996  0.33692  0.53311  1.0000
  O   O44       1.0  0.98958  0.34991  0.56964  1.0000
  O   O45       1.0  0.99337  0.32576  0.58167  1.0000
  C   C125      1.0  0.92370  0.33147  0.38667  1.0000
  H   H45       1.0  0.91597  0.32508  0.44357  1.0000
  C   C126      1.0  0.19577  0.14985  0.40821  1.0000
  C   C127      1.0  0.16857  0.14469  0.47731  1.0000
  C   C128      1.0  0.13789  0.13299  0.46122  1.0000
  H   H46       1.0  0.17157  0.14925  0.54170  1.0000
  N   N95       1.0  0.11159  0.12802  0.53293  1.0000
  O   O46       1.0  0.13171  0.12143  0.59562  1.0000
  C   C129      1.0  0.22340  0.16255  0.42420  1.0000
  H   H47       1.0  0.21740  0.17019  0.47691  1.0000
  C   C130      1.0  0.82665  0.87270  0.41044  1.0000
  C   C131      1.0  0.85398  0.87780  0.47943  1.0000
  C   C132      1.0  0.88469  0.88949  0.46332  1.0000
  H   H48       1.0  0.85108  0.87321  0.54374  1.0000
  N   N96       1.0  0.91113  0.89441  0.53491  1.0000
  O   O47       1.0  0.93108  0.88296  0.56781  1.0000
  O   O48       1.0  0.89114  0.90098  0.59787  1.0000
  C   C133      1.0  0.79896  0.86003  0.42638  1.0000
  H   H49       1.0  0.80511  0.85233  0.47874  1.0000
  C   C134      1.0  0.89386  0.12604  0.34423  1.0000
  C   C135      1.0  0.86748  0.13182  0.41461  1.0000
  C   C136      1.0  0.83410  0.14211  0.39334  1.0000
  H   H50       1.0  0.81613  0.14626  0.44552  1.0000
  N   N97       1.0  0.87385  0.12667  0.50563  1.0000
  O   O49       1.0  0.84338  0.11911  0.53589  1.0000
  O   O50       1.0  0.88121  0.13814  0.55805  1.0000
  C   C137      1.0  0.93037  0.11756  0.36575  1.0000
  H   H51       1.0  0.94428  0.12009  0.42675  1.0000
  C   C138      1.0  0.12849  0.89639  0.34201  1.0000
  C   C139      1.0  0.15511  0.89076  0.41235  1.0000
  C   C140      1.0  0.18854  0.88049  0.39120  1.0000
  H   H52       1.0  0.20671  0.87645  0.44335  1.0000
  N   N98       1.0  0.14893  0.89604  0.50318  1.0000
  O   O51       1.0  0.17940  0.90369  0.53266  1.0000
  O   O52       1.0  0.14180  0.88465  0.55629  1.0000
  C   C141      1.0  0.69566  0.64995  0.40569  1.0000
  C   C142      1.0  0.66826  0.64498  0.47487  1.0000
  C   C143      1.0  0.63759  0.63325  0.45942  1.0000
  H   H53       1.0  0.67110  0.64970  0.53890  1.0000
  N   N99       1.0  0.61110  0.62847  0.53125  1.0000
  O   O53       1.0  0.59109  0.63998  0.56328  1.0000
  O   O54       1.0  0.63106  0.62204  0.59473  1.0000
  C   C144      1.0  0.72326  0.66267  0.42101  1.0000
  H   H54       1.0  0.71695  0.67045  0.47289  1.0000
  C   C145      1.0  0.32677  0.37260  0.40782  1.0000
  C   C146      1.0  0.35424  0.37753  0.47694  1.0000
  C   C147      1.0  0.38493  0.38926  0.46146  1.0000
  H   H55       1.0  0.35149  0.37278  0.54089  1.0000
  N   N100      1.0  0.41154  0.39398  0.53315  1.0000
  O   O55       1.0  0.43156  0.38245  0.56487  1.0000
  O   O56       1.0  0.39171  0.40040  0.59687  1.0000
  C   C148      1.0  0.29914  0.35988  0.42306  1.0000
  H   H56       1.0  0.30549  0.35207  0.47477  1.0000
  C   C149      1.0  0.39374  0.62605  0.34556  1.0000
  C   C150      1.0  0.36729  0.63169  0.41616  1.0000
  C   C151      1.0  0.33394  0.64203  0.39538  1.0000
  H   H57       1.0  0.31591  0.64609  0.44771  1.0000
  N   N101      1.0  0.37358  0.62637  0.50687  1.0000
  O   O57       1.0  0.34307  0.61875  0.53648  1.0000
  O   O58       1.0  0.38088  0.63774  0.56005  1.0000
  C   C152      1.0  0.43023  0.61753  0.36670  1.0000
  H   H58       1.0  0.44422  0.62002  0.42772  1.0000
  C   C153      1.0  0.62851  0.39639  0.34320  1.0000
  C   C154      1.0  0.65521  0.39090  0.41371  1.0000
  C   C155      1.0  0.68857  0.38056  0.39303  1.0000
  H   H59       1.0  0.70678  0.37661  0.44533  1.0000
  N   N102      1.0  0.64916  0.39637  0.50420  1.0000
  O   O59       1.0  0.67971  0.40407  0.53296  1.0000
  O   O60       1.0  0.64208  0.38509  0.55812  1.0000
  C   C156      1.0  0.59192  0.40485  0.36445  1.0000
  H   H60       1.0  0.57816  0.40237  0.42570  1.0000
  C   C157      1.0  0.24154  0.27636  0.36844  1.0000
  C   C158      1.0  0.23636  0.26498  0.43927  1.0000
  C   C159      1.0  0.25626  0.25002  0.43305  1.0000
  H   H61       1.0  0.25261  0.24202  0.48505  1.0000
  N   N103      1.0  0.21180  0.26882  0.51617  1.0000
  O   O61       1.0  0.23255  0.26855  0.58854  1.0000
  O   O62       1.0  0.18190  0.25944  0.52439  1.0000
  C   C160      1.0  0.21978  0.29062  0.37110  1.0000
  H   H62       1.0  0.18919  0.29010  0.37445  1.0000
  C   C161      1.0  0.78095  0.74619  0.36816  1.0000
  C   C162      1.0  0.78624  0.75755  0.43905  1.0000
  C   C163      1.0  0.76632  0.77252  0.43312  1.0000
  H   H63       1.0  0.77005  0.78050  0.48516  1.0000
  N   N104      1.0  0.81091  0.75370  0.51574  1.0000
  O   O63       1.0  0.79028  0.75395  0.58827  1.0000
  O   O64       1.0  0.84084  0.76307  0.52379  1.0000
  C   C164      1.0  0.80271  0.73193  0.37056  1.0000
  H   H64       1.0  0.83330  0.73245  0.37395  1.0000
  C   C165      1.0  0.74259  0.24572  0.35302  1.0000
  C   C166      1.0  0.73643  0.25719  0.42203  1.0000
  C   C167      1.0  0.75487  0.27244  0.41791  1.0000
  H   H65       1.0  0.71865  0.25439  0.47745  1.0000
  N   N105      1.0  0.74936  0.28348  0.48993  1.0000
  O   O65       1.0  0.71201  0.28696  0.50059  1.0000
  O   O66       1.0  0.76333  0.27823  0.56394  1.0000
  C   C168      1.0  0.72284  0.23106  0.35841  1.0000
  H   H66       1.0  0.69425  0.23084  0.38302  1.0000
  C   C169      1.0  0.27995  0.77677  0.35280  1.0000
  C   C170      1.0  0.28618  0.76532  0.42183  1.0000
  C   C171      1.0  0.26774  0.75006  0.41786  1.0000
  H   H67       1.0  0.30398  0.76812  0.47720  1.0000
  N   N106      1.0  0.27329  0.73904  0.48995  1.0000
  O   O67       1.0  0.31065  0.73555  0.50051  1.0000
  O   O68       1.0  0.25938  0.74430  0.56398  1.0000
  C   C172      1.0  0.29968  0.79144  0.35809  1.0000
  H   H68       1.0  0.32826  0.79167  0.38273  1.0000
  C   C173      1.0  0.00318  0.02827  0.35874  1.0000
  C   C174      1.0  0.98809  0.01765  0.42554  1.0000
  C   C175      1.0  0.99585  0.00102  0.42194  1.0000
  H   H69       1.0  0.97134  0.02206  0.47901  1.0000
  N   N107      1.0  0.98139  0.99094  0.49242  1.0000
  O   O69       1.0  0.94278  0.99134  0.49875  1.0000
  O   O70       1.0  0.99672  0.99458  0.56827  1.0000
  C   C176      1.0  0.99292  0.04445  0.36176  1.0000
  H   H70       1.0  0.96368  0.04729  0.37390  1.0000
  C   C177      1.0  0.50311  0.52827  0.35882  1.0000
  C   C178      1.0  0.48790  0.51764  0.42543  1.0000
  C   C179      1.0  0.49566  0.50101  0.42182  1.0000
  H   H71       1.0  0.47103  0.52204  0.47876  1.0000
  N   N108      1.0  0.48106  0.49091  0.49210  1.0000
  O   O71       1.0  0.44243  0.49132  0.49804  1.0000
  O   O72       1.0  0.49624  0.49455  0.56812  1.0000
  C   C180      1.0  0.49290  0.54446  0.36193  1.0000
  H   H72       1.0  0.46369  0.54731  0.37441  1.0000
