data_image0
_chemical_formula_structural       C3NOCHCHC3NOCHCHC3H2CHC3H2CHC3NOCHCHC3NOCHCHC3H2CHC3H2CHC3NOCHCHC3NOCHCHC8HC7HCH4N4C8HC7HCH4N4C8HC7HCH4N4C8HC7HCH4N4C8HC7HCH4N4C3H2CHC3H2CHC3NOCHCHC3NOCHCHC3H2CHC3H2CHC3NOCHCHC3NOCHCHC3H2CHC3H2CH
_chemical_formula_sum              "C170 N30 O10 H80"
_cell_length_a       32.9325
_cell_length_b       41.3151
_cell_length_c       14.8283
_cell_angle_alpha    90
_cell_angle_beta     90
_cell_angle_gamma    89.772

_space_group_name_H-M_alt    "P 1"
_space_group_IT_number       1

loop_
  _space_group_symop_operation_xyz
  'x, y, z'

loop_
  _atom_site_type_symbol
  _atom_site_label
  _atom_site_symmetry_multiplicity
  _atom_site_fract_x
  _atom_site_fract_y
  _atom_site_fract_z
  _atom_site_occupancy
  C   C1        1.0  0.11861  0.12686  0.33246  1.0000
  C   C2        1.0  0.13614  0.14428  0.26017  1.0000
  C   C3        1.0  0.15510  0.17416  0.27347  1.0000
  N   N1        1.0  0.16637  0.18486  0.19256  1.0000
  O   O1        1.0  0.13456  0.13639  0.17099  1.0000
  C   C4        1.0  0.15356  0.16251  0.13351  1.0000
  H   H1        1.0  0.15847  0.16450  0.06577  1.0000
  C   C5        1.0  0.10125  0.09595  0.31823  1.0000
  H   H2        1.0  0.10976  0.08338  0.26180  1.0000
  C   C6        1.0  0.80483  0.92045  0.33237  1.0000
  C   C7        1.0  0.78666  0.90335  0.26025  1.0000
  C   C8        1.0  0.76765  0.87350  0.27339  1.0000
  N   N2        1.0  0.75567  0.86314  0.19263  1.0000
  O   O2        1.0  0.78757  0.91158  0.17125  1.0000
  C   C9        1.0  0.76813  0.88567  0.13375  1.0000
  H   H3        1.0  0.76269  0.88395  0.06616  1.0000
  C   C10       1.0  0.82233  0.95132  0.31826  1.0000
  H   H4        1.0  0.81351  0.96408  0.26236  1.0000
  C   C11       1.0  0.76571  0.18513  0.37824  1.0000
  C   C12       1.0  0.75723  0.15462  0.33853  1.0000
  C   C13       1.0  0.78412  0.12799  0.34767  1.0000
  H   H5        1.0  0.77689  0.10665  0.31678  1.0000
  H   H6        1.0  0.73137  0.15155  0.30129  1.0000
  C   C14       1.0  0.73891  0.21166  0.36722  1.0000
  H   H7        1.0  0.71311  0.20850  0.33054  1.0000
  C   C15       1.0  0.15785  0.86218  0.37805  1.0000
  C   C16       1.0  0.16634  0.89269  0.33834  1.0000
  C   C17       1.0  0.13944  0.91932  0.34748  1.0000
  H   H8        1.0  0.14667  0.94066  0.31658  1.0000
  H   H9        1.0  0.19218  0.89576  0.30109  1.0000
  C   C18       1.0  0.18464  0.83565  0.36701  1.0000
  H   H10       1.0  0.21044  0.83881  0.33032  1.0000
  C   C19       1.0  0.26855  0.49568  0.33225  1.0000
  C   C20       1.0  0.26492  0.52075  0.26766  1.0000
  C   C21       1.0  0.27458  0.55283  0.28861  1.0000
  N   N3        1.0  0.26823  0.57019  0.21420  1.0000
  O   O3        1.0  0.25348  0.51761  0.17976  1.0000
  C   C22       1.0  0.25632  0.54898  0.15110  1.0000
  H   H11       1.0  0.24910  0.55585  0.08693  1.0000
  C   C23       1.0  0.25807  0.46341  0.31094  1.0000
  H   H12       1.0  0.24357  0.45862  0.25153  1.0000
  C   C24       1.0  0.65526  0.55176  0.33240  1.0000
  C   C25       1.0  0.65881  0.52668  0.26780  1.0000
  C   C26       1.0  0.64914  0.49461  0.28882  1.0000
  N   N4        1.0  0.65540  0.47724  0.21439  1.0000
  O   O4        1.0  0.67016  0.52981  0.17984  1.0000
  C   C27       1.0  0.66727  0.49844  0.15122  1.0000
  H   H13       1.0  0.67440  0.49156  0.08702  1.0000
  C   C28       1.0  0.66574  0.58402  0.31103  1.0000
  H   H14       1.0  0.68022  0.58880  0.25159  1.0000
  C   C29       1.0  0.95514  0.36779  0.25811  1.0000
  C   C30       1.0  0.98346  0.36527  0.18684  1.0000
  C   C31       1.0  0.02352  0.35456  0.20354  1.0000
  H   H15       1.0  0.04301  0.35281  0.15006  1.0000
  H   H16       1.0  0.97527  0.37102  0.12215  1.0000
  C   C32       1.0  0.91805  0.37742  0.24347  1.0000
  H   H17       1.0  0.89177  0.38422  0.23311  1.0000
  C   C33       1.0  0.96869  0.67949  0.25816  1.0000
  C   C34       1.0  0.94035  0.68210  0.18697  1.0000
  C   C35       1.0  0.90036  0.69294  0.20378  1.0000
  H   H18       1.0  0.88084  0.69476  0.15035  1.0000
  H   H19       1.0  0.94847  0.67632  0.12225  1.0000
  C   C36       1.0  0.00573  0.66975  0.24342  1.0000
  H   H20       1.0  0.03197  0.66286  0.23299  1.0000
  C   C37       1.0  0.42280  0.35006  0.32349  1.0000
  C   C38       1.0  0.44521  0.35195  0.24226  1.0000
  C   C39       1.0  0.48710  0.34693  0.24056  1.0000
  N   N5        1.0  0.49836  0.34821  0.15433  1.0000
  O   O5        1.0  0.42999  0.35687  0.15775  1.0000
  C   C40       1.0  0.46448  0.35427  0.10712  1.0000
  H   H21       1.0  0.46438  0.35634  0.03853  1.0000
  C   C41       1.0  0.38140  0.35676  0.32230  1.0000
  H   H22       1.0  0.37176  0.37130  0.27289  1.0000
  C   C42       1.0  0.50088  0.69737  0.32333  1.0000
  C   C43       1.0  0.47842  0.69549  0.24217  1.0000
  C   C44       1.0  0.43652  0.70048  0.24063  1.0000
  N   N6        1.0  0.42520  0.69921  0.15443  1.0000
  O   O6        1.0  0.49359  0.69059  0.15760  1.0000
  C   C45       1.0  0.45906  0.69319  0.10709  1.0000
  H   H23       1.0  0.45911  0.69113  0.03850  1.0000
  C   C46       1.0  0.54229  0.69068  0.32198  1.0000
  H   H24       1.0  0.55188  0.67612  0.27259  1.0000
  C   C47       1.0  0.93993  0.02296  0.37166  1.0000
  C   C48       1.0  0.91957  0.99246  0.36958  1.0000
  C   C49       1.0  0.87666  0.99060  0.35827  1.0000
  C   C50       1.0  0.85461  0.01985  0.34955  1.0000
  C   C51       1.0  0.87299  0.05039  0.36227  1.0000
  C   C52       1.0  0.91629  0.05200  0.36862  1.0000
  C   C53       1.0  0.94356  0.96414  0.36598  1.0000
  C   C54       1.0  0.93760  0.08161  0.36264  1.0000
  H   H25       1.0  0.82360  0.01869  0.34572  1.0000
  C   C55       1.0  0.98364  0.02435  0.37163  1.0000
  C   C56       1.0  0.00728  0.99531  0.36852  1.0000
  C   C57       1.0  0.05057  0.99691  0.36206  1.0000
  C   C58       1.0  0.06896  0.02745  0.34939  1.0000
  C   C59       1.0  0.04691  0.05671  0.35826  1.0000
  C   C60       1.0  0.00401  0.05485  0.36959  1.0000
  C   C61       1.0  0.98599  0.96569  0.36265  1.0000
  H   H26       1.0  0.09997  0.02865  0.34558  1.0000
  C   C62       1.0  0.98003  0.08318  0.36617  1.0000
  H   H27       1.0  0.00053  0.94466  0.34731  1.0000
  H   H28       1.0  0.93046  0.94191  0.35811  1.0000
  H   H29       1.0  0.99313  0.10540  0.35827  1.0000
  H   H30       1.0  0.92302  0.10266  0.34760  1.0000
  N   N7        1.0  0.84606  0.07550  0.37013  1.0000
  N   N8        1.0  0.85728  0.96129  0.35815  1.0000
  N   N9        1.0  0.06632  0.08601  0.35828  1.0000
  N   N10       1.0  0.07751  0.97181  0.36993  1.0000
  C   C63       1.0  0.21118  0.32897  0.31883  1.0000
  C   C64       1.0  0.17365  0.34275  0.29006  1.0000
  C   C65       1.0  0.14100  0.32227  0.26634  1.0000
  C   C66       1.0  0.14605  0.28849  0.26901  1.0000
  C   C67       1.0  0.18119  0.27408  0.30576  1.0000
  C   C68       1.0  0.21457  0.29452  0.32902  1.0000
  C   C69       1.0  0.16944  0.37676  0.28640  1.0000
  C   C70       1.0  0.25262  0.28185  0.35557  1.0000
  H   H31       1.0  0.12124  0.27438  0.25482  1.0000
  C   C71       1.0  0.24451  0.34996  0.33941  1.0000
  C   C72       1.0  0.24003  0.38446  0.33348  1.0000
  C   C73       1.0  0.27248  0.40518  0.35947  1.0000
  C   C74       1.0  0.30907  0.39084  0.38814  1.0000
  C   C75       1.0  0.31613  0.35717  0.38147  1.0000
  C   C76       1.0  0.28283  0.33629  0.36366  1.0000
  C   C77       1.0  0.20179  0.39712  0.30863  1.0000
  H   H32       1.0  0.33329  0.40557  0.40227  1.0000
  C   C78       1.0  0.28633  0.30219  0.36956  1.0000
  H   H33       1.0  0.19633  0.42139  0.30816  1.0000
  H   H34       1.0  0.14256  0.38728  0.26778  1.0000
  H   H35       1.0  0.31338  0.29176  0.38733  1.0000
  H   H36       1.0  0.25682  0.25740  0.36061  1.0000
  N   N11       1.0  0.17464  0.24207  0.32196  1.0000
  N   N12       1.0  0.10381  0.33362  0.25099  1.0000
  N   N13       1.0  0.35517  0.34746  0.38188  1.0000
  N   N14       1.0  0.27494  0.43807  0.35524  1.0000
  C   C79       1.0  0.71263  0.71846  0.31910  1.0000
  C   C80       1.0  0.75020  0.70467  0.29065  1.0000
  C   C81       1.0  0.78289  0.72514  0.26721  1.0000
  C   C82       1.0  0.77783  0.75893  0.26975  1.0000
  C   C83       1.0  0.74267  0.77334  0.30633  1.0000
  C   C84       1.0  0.70922  0.75291  0.32922  1.0000
  C   C85       1.0  0.75441  0.67066  0.28701  1.0000
  C   C86       1.0  0.67110  0.76558  0.35534  1.0000
  H   H37       1.0  0.80265  0.77301  0.25546  1.0000
  C   C87       1.0  0.67926  0.69747  0.33938  1.0000
  C   C88       1.0  0.68374  0.66297  0.33347  1.0000
  C   C89       1.0  0.65123  0.64226  0.35920  1.0000
  C   C90       1.0  0.61464  0.65660  0.38773  1.0000
  C   C91       1.0  0.60758  0.69026  0.38093  1.0000
  C   C92       1.0  0.64089  0.71115  0.36335  1.0000
  C   C93       1.0  0.72201  0.65030  0.30892  1.0000
  H   H38       1.0  0.59040  0.64191  0.40199  1.0000
  C   C94       1.0  0.63737  0.74524  0.36907  1.0000
  H   H39       1.0  0.72747  0.62604  0.30856  1.0000
  H   H40       1.0  0.78132  0.66014  0.26867  1.0000
  H   H41       1.0  0.61031  0.75567  0.38671  1.0000
  H   H42       1.0  0.66689  0.79003  0.36032  1.0000
  N   N15       1.0  0.74904  0.80543  0.32178  1.0000
  N   N16       1.0  0.82006  0.71374  0.25175  1.0000
  N   N17       1.0  0.56855  0.70000  0.38148  1.0000
  N   N18       1.0  0.64880  0.60936  0.35521  1.0000
  C   C95       1.0  0.69802  0.32401  0.40577  1.0000
  C   C96       1.0  0.72961  0.34036  0.45257  1.0000
  C   C97       1.0  0.76426  0.32292  0.48206  1.0000
  C   C98       1.0  0.76771  0.28967  0.46377  1.0000
  C   C99       1.0  0.73753  0.27285  0.41570  1.0000
  C   C100      1.0  0.70227  0.29011  0.38701  1.0000
  C   C101      1.0  0.72606  0.37401  0.46679  1.0000
  C   C102      1.0  0.67095  0.27483  0.33852  1.0000
  H   H43       1.0  0.79329  0.27759  0.48479  1.0000
  C   C103      1.0  0.66301  0.34191  0.37625  1.0000
  C   C104      1.0  0.65999  0.37629  0.38885  1.0000
  C   C105      1.0  0.62780  0.39460  0.34771  1.0000
  C   C106      1.0  0.59968  0.37878  0.29270  1.0000
  C   C107      1.0  0.59491  0.34393  0.30135  1.0000
  C   C108      1.0  0.63180  0.32530  0.32928  1.0000
  C   C109      1.0  0.69263  0.39146  0.43409  1.0000
  H   H44       1.0  0.57534  0.39124  0.27260  1.0000
  C   C110      1.0  0.63665  0.29202  0.30979  1.0000
  H   H45       1.0  0.69392  0.41584  0.44172  1.0000
  H   H46       1.0  0.74874  0.38662  0.49802  1.0000
  H   H47       1.0  0.61499  0.27964  0.27471  1.0000
  H   H48       1.0  0.67224  0.25095  0.32321  1.0000
  N   N19       1.0  0.74720  0.24122  0.40185  1.0000
  N   N20       1.0  0.79308  0.33614  0.52366  1.0000
  N   N21       1.0  0.57111  0.32992  0.23775  1.0000
  N   N22       1.0  0.62519  0.42760  0.34430  1.0000
  C   C111      1.0  0.22559  0.72333  0.40554  1.0000
  C   C112      1.0  0.19403  0.70695  0.45235  1.0000
  C   C113      1.0  0.15937  0.72438  0.48185  1.0000
  C   C114      1.0  0.15589  0.75763  0.46358  1.0000
  C   C115      1.0  0.18605  0.77447  0.41550  1.0000
  C   C116      1.0  0.22133  0.75723  0.38679  1.0000
  C   C117      1.0  0.19763  0.67330  0.46658  1.0000
  C   C118      1.0  0.25266  0.77252  0.33838  1.0000
  H   H49       1.0  0.13028  0.76969  0.48455  1.0000
  C   C119      1.0  0.26062  0.70546  0.37602  1.0000
  C   C120      1.0  0.26368  0.67109  0.38857  1.0000
  C   C121      1.0  0.29590  0.65285  0.34723  1.0000
  C   C122      1.0  0.32379  0.66859  0.29125  1.0000
  C   C123      1.0  0.32877  0.70340  0.30175  1.0000
  C   C124      1.0  0.29183  0.72207  0.32916  1.0000
  C   C125      1.0  0.23112  0.65589  0.43402  1.0000
  H   H50       1.0  0.34855  0.65627  0.27340  1.0000
  C   C126      1.0  0.28699  0.75536  0.30973  1.0000
  H   H51       1.0  0.22985  0.63151  0.44158  1.0000
  H   H52       1.0  0.17500  0.66069  0.49795  1.0000
  H   H53       1.0  0.30868  0.76775  0.27481  1.0000
  H   H54       1.0  0.25138  0.79641  0.32315  1.0000
  N   N23       1.0  0.17635  0.80609  0.40166  1.0000
  N   N24       1.0  0.13056  0.71113  0.52342  1.0000
  N   N25       1.0  0.35252  0.71750  0.23817  1.0000
  N   N26       1.0  0.29850  0.61985  0.34386  1.0000
  C   C127      1.0  0.16225  0.18720  0.36016  1.0000
  C   C128      1.0  0.14640  0.16903  0.43340  1.0000
  C   C129      1.0  0.12289  0.14068  0.41954  1.0000
  H   H55       1.0  0.11223  0.12855  0.47475  1.0000
  H   H56       1.0  0.15020  0.17722  0.49793  1.0000
  C   C130      1.0  0.18471  0.21610  0.37283  1.0000
  H   H57       1.0  0.19664  0.22098  0.43496  1.0000
  C   C131      1.0  0.76114  0.86012  0.35995  1.0000
  C   C132      1.0  0.77766  0.87796  0.43310  1.0000
  C   C133      1.0  0.80119  0.90629  0.41917  1.0000
  H   H58       1.0  0.81236  0.91817  0.47432  1.0000
  H   H59       1.0  0.77431  0.86954  0.49752  1.0000
  C   C134      1.0  0.73850  0.83131  0.37256  1.0000
  H   H60       1.0  0.72705  0.82619  0.43494  1.0000
  C   C135      1.0  0.82051  0.13065  0.39809  1.0000
  C   C136      1.0  0.82865  0.16101  0.43814  1.0000
  C   C137      1.0  0.80226  0.18723  0.42790  1.0000
  N   N27       1.0  0.81893  0.21202  0.47158  1.0000
  O   O7        1.0  0.86208  0.16918  0.48741  1.0000
  C   C138      1.0  0.85389  0.20089  0.50609  1.0000
  H   H61       1.0  0.87303  0.21508  0.54288  1.0000
  C   C139      1.0  0.84917  0.10539  0.40719  1.0000
  H   H62       1.0  0.87370  0.10955  0.44760  1.0000
  C   C140      1.0  0.10306  0.91667  0.39791  1.0000
  C   C141      1.0  0.09492  0.88630  0.43797  1.0000
  C   C142      1.0  0.12130  0.86009  0.42772  1.0000
  N   N28       1.0  0.10464  0.83529  0.47142  1.0000
  O   O8        1.0  0.06149  0.87813  0.48726  1.0000
  C   C143      1.0  0.06968  0.84643  0.50594  1.0000
  H   H63       1.0  0.05054  0.83224  0.54275  1.0000
  C   C144      1.0  0.07440  0.94192  0.40700  1.0000
  H   H64       1.0  0.04987  0.93776  0.44739  1.0000
  C   C145      1.0  0.28558  0.56263  0.37662  1.0000
  C   C146      1.0  0.28812  0.53771  0.44222  1.0000
  C   C147      1.0  0.28162  0.50485  0.41970  1.0000
  H   H65       1.0  0.28367  0.48796  0.46995  1.0000
  H   H66       1.0  0.29557  0.54319  0.50743  1.0000
  C   C148      1.0  0.29004  0.59542  0.40185  1.0000
  H   H67       1.0  0.28942  0.60110  0.46902  1.0000
  C   C149      1.0  0.63824  0.48482  0.37690  1.0000
  C   C150      1.0  0.63578  0.50975  0.44250  1.0000
  C   C151      1.0  0.64227  0.54259  0.41993  1.0000
  H   H68       1.0  0.64029  0.55949  0.47017  1.0000
  H   H69       1.0  0.62841  0.50427  0.50775  1.0000
  C   C152      1.0  0.63381  0.45203  0.40218  1.0000
  H   H70       1.0  0.63453  0.44636  0.46935  1.0000
  C   C153      1.0  0.03648  0.34608  0.29181  1.0000
  C   C154      1.0  0.00766  0.34884  0.36227  1.0000
  C   C155      1.0  0.96815  0.35939  0.34549  1.0000
  N   N29       1.0  0.94845  0.35926  0.42401  1.0000
  O   O9        1.0  0.01325  0.34195  0.45142  1.0000
  C   C156      1.0  0.97559  0.34897  0.48519  1.0000
  H   H71       1.0  0.96864  0.34648  0.55190  1.0000
  C   C157      1.0  0.07531  0.33470  0.31045  1.0000
  H   H72       1.0  0.08121  0.32664  0.37254  1.0000
  C   C158      1.0  0.88749  0.70146  0.29208  1.0000
  C   C159      1.0  0.91633  0.69860  0.36245  1.0000
  C   C160      1.0  0.95578  0.68793  0.34558  1.0000
  N   N30       1.0  0.97552  0.68799  0.42404  1.0000
  O   O10       1.0  0.91082  0.70551  0.45163  1.0000
  C   C161      1.0  0.94846  0.69838  0.48529  1.0000
  H   H73       1.0  0.95547  0.70084  0.55199  1.0000
  C   C162      1.0  0.84873  0.71297  0.31083  1.0000
  H   H74       1.0  0.84301  0.72130  0.37271  1.0000
  C   C163      1.0  0.50986  0.34057  0.31958  1.0000
  C   C164      1.0  0.48765  0.33951  0.40145  1.0000
  C   C165      1.0  0.44508  0.34436  0.40371  1.0000
  H   H75       1.0  0.43046  0.34332  0.46450  1.0000
  H   H76       1.0  0.50223  0.33395  0.46040  1.0000
  C   C166      1.0  0.55225  0.32767  0.31994  1.0000
  H   H77       1.0  0.55391  0.30275  0.34413  1.0000
  C   C167      1.0  0.41382  0.70681  0.31975  1.0000
  C   C168      1.0  0.43608  0.70785  0.40155  1.0000
  C   C169      1.0  0.47865  0.70303  0.40365  1.0000
  H   H78       1.0  0.49332  0.70405  0.46440  1.0000
  H   H79       1.0  0.42153  0.71338  0.46056  1.0000
  C   C170      1.0  0.37142  0.71968  0.32029  1.0000
  H   H80       1.0  0.36973  0.74457  0.34473  1.0000
