data_image0
_chemical_formula_structural       HC8HC7HCH4C3H3C8HC7HCH4C4H4C2NC2H2CH3NC2NC2H2CH3NC2NC2H2CH3NC2NC2H2CH3NC2NC2H2CH3NC2NC2H2CH3NC8HC7HCH4C4H3CHC3HC3NHCH3NC3HC3NHCH3NC3HC3NHCH3NC3HC3NHCH3NC3HC3NHCH3NC3HC3NHCH3N
_chemical_formula_sum              "H90 C132 N24"
_cell_length_a       38.2906
_cell_length_b       38.2906
_cell_length_c       14.9583
_cell_angle_alpha    90.0002
_cell_angle_beta     89.9998
_cell_angle_gamma    120

_space_group_name_H-M_alt    "P 1"
_space_group_IT_number       1

loop_
  _space_group_symop_operation_xyz
  'x, y, z'

loop_
  _atom_site_type_symbol
  _atom_site_label
  _atom_site_symmetry_multiplicity
  _atom_site_fract_x
  _atom_site_fract_y
  _atom_site_fract_z
  _atom_site_occupancy
  H   H1        1.0  0.13057  0.53688  0.26559  1.0000
  C   C1        1.0  0.51085  0.54246  0.32924  1.0000
  C   C2        1.0  0.51498  0.50739  0.32670  1.0000
  C   C3        1.0  0.48013  0.46816  0.32258  1.0000
  C   C4        1.0  0.44171  0.46464  0.32992  1.0000
  C   C5        1.0  0.43687  0.49866  0.33774  1.0000
  C   C6        1.0  0.47153  0.53790  0.33393  1.0000
  C   C7        1.0  0.55433  0.51291  0.33105  1.0000
  C   C8        1.0  0.46837  0.57310  0.33696  1.0000
  H   H2        1.0  0.41649  0.43646  0.33006  1.0000
  C   C9        1.0  0.54593  0.58197  0.32920  1.0000
  C   C10       1.0  0.58525  0.58653  0.33378  1.0000
  C   C11       1.0  0.61991  0.62577  0.33748  1.0000
  C   C12       1.0  0.61507  0.65980  0.32978  1.0000
  C   C13       1.0  0.57665  0.65627  0.32252  1.0000
  C   C14       1.0  0.54180  0.61704  0.32672  1.0000
  C   C15       1.0  0.58842  0.55133  0.33676  1.0000
  H   H3        1.0  0.64030  0.68797  0.32991  1.0000
  C   C16       1.0  0.50245  0.61153  0.33115  1.0000
  H   H4        1.0  0.61580  0.55292  0.34133  1.0000
  H   H5        1.0  0.55896  0.48885  0.33371  1.0000
  H   H6        1.0  0.49782  0.63559  0.33392  1.0000
  H   H7        1.0  0.44099  0.57151  0.34164  1.0000
  C   C17       1.0  0.57428  0.69109  0.30849  1.0000
  C   C18       1.0  0.65818  0.63289  0.35889  1.0000
  C   C19       1.0  0.48249  0.43335  0.30844  1.0000
  H   H8        1.0  0.55375  0.68975  0.26563  1.0000
  H   H9        1.0  0.66941  0.64548  0.41793  1.0000
  H   H10       1.0  0.50299  0.43469  0.26550  1.0000
  C   C20       1.0  0.54817  0.06444  0.32928  1.0000
  C   C21       1.0  0.58324  0.10364  0.32676  1.0000
  C   C22       1.0  0.62246  0.10802  0.32258  1.0000
  C   C23       1.0  0.62599  0.07313  0.32988  1.0000
  C   C24       1.0  0.59197  0.03426  0.33769  1.0000
  C   C25       1.0  0.55273  0.02968  0.33392  1.0000
  C   C26       1.0  0.57772  0.13748  0.33117  1.0000
  C   C27       1.0  0.51753  0.99131  0.33694  1.0000
  H   H11       1.0  0.65417  0.07608  0.33002  1.0000
  C   C28       1.0  0.50866  0.06001  0.32928  1.0000
  C   C29       1.0  0.50409  0.09477  0.33394  1.0000
  C   C30       1.0  0.46486  0.09019  0.33773  1.0000
  C   C31       1.0  0.43083  0.05132  0.32991  1.0000
  C   C32       1.0  0.43436  0.01643  0.32258  1.0000
  C   C33       1.0  0.47359  0.02081  0.32674  1.0000
  C   C34       1.0  0.53930  0.13314  0.33696  1.0000
  H   H12       1.0  0.40266  0.04837  0.33005  1.0000
  C   C35       1.0  0.47911  0.98697  0.33113  1.0000
  H   H13       1.0  0.53770  0.15892  0.34157  1.0000
  H   H14       1.0  0.60178  0.16616  0.33386  1.0000
  H   H15       1.0  0.45505  0.95829  0.33386  1.0000
  H   H16       1.0  0.51912  0.96553  0.34154  1.0000
  C   C36       1.0  0.59909  0.00311  0.35905  1.0000
  C   C37       1.0  0.39954  0.97925  0.30854  1.0000
  C   C38       1.0  0.45774  0.12134  0.35907  1.0000
  C   C39       1.0  0.65728  0.14521  0.30852  1.0000
  H   H17       1.0  0.61170  0.00447  0.41806  1.0000
  H   H18       1.0  0.40087  0.96006  0.26565  1.0000
  H   H19       1.0  0.44512  0.11998  0.41807  1.0000
  H   H20       1.0  0.65594  0.16438  0.26561  1.0000
  C   C40       1.0  0.34181  0.49722  0.31810  1.0000
  C   C41       1.0  0.31815  0.49306  0.24246  1.0000
  N   N1        1.0  0.28173  0.49052  0.25205  1.0000
  C   C42       1.0  0.19088  0.45414  0.31090  1.0000
  C   C43       1.0  0.15499  0.45615  0.31631  1.0000
  H   H21       1.0  0.12777  0.43090  0.30348  1.0000
  H   H22       1.0  0.32796  0.49176  0.17965  1.0000
  C   C44       1.0  0.18736  0.41476  0.28751  1.0000
  H   H23       1.0  0.21619  0.41555  0.28799  1.0000
  H   H24       1.0  0.17439  0.40569  0.22076  1.0000
  H   H25       1.0  0.16759  0.39182  0.33536  1.0000
  N   N2        1.0  0.37795  0.50073  0.30612  1.0000
  C   C45       1.0  0.59342  0.94064  0.31808  1.0000
  C   C46       1.0  0.59760  0.92115  0.24245  1.0000
  N   N3        1.0  0.60016  0.88728  0.25208  1.0000
  C   C47       1.0  0.63652  0.83280  0.31089  1.0000
  C   C48       1.0  0.63450  0.79489  0.31630  1.0000
  H   H26       1.0  0.65974  0.79291  0.30342  1.0000
  H   H27       1.0  0.59891  0.93227  0.17964  1.0000
  C   C49       1.0  0.67589  0.86864  0.28746  1.0000
  H   H28       1.0  0.67512  0.89670  0.28797  1.0000
  H   H29       1.0  0.68494  0.86474  0.22069  1.0000
  H   H30       1.0  0.69885  0.87182  0.33527  1.0000
  N   N4        1.0  0.58990  0.97327  0.30609  1.0000
  C   C50       1.0  0.15003  0.74881  0.31806  1.0000
  C   C51       1.0  0.16950  0.77249  0.24245  1.0000
  N   N5        1.0  0.20338  0.80892  0.25208  1.0000
  C   C52       1.0  0.25784  0.89976  0.31102  1.0000
  C   C53       1.0  0.29574  0.93565  0.31644  1.0000
  H   H31       1.0  0.29772  0.96287  0.30359  1.0000
  H   H32       1.0  0.15839  0.76270  0.17964  1.0000
  C   C54       1.0  0.22199  0.90328  0.28755  1.0000
  H   H33       1.0  0.19394  0.87444  0.28803  1.0000
  H   H34       1.0  0.22591  0.91624  0.22080  1.0000
  H   H35       1.0  0.21880  0.92305  0.33537  1.0000
  N   N6        1.0  0.11738  0.71268  0.30609  1.0000
  C   C55       1.0  0.71498  0.62719  0.31796  1.0000
  C   C56       1.0  0.73866  0.63138  0.24235  1.0000
  N   N7        1.0  0.77509  0.63394  0.25199  1.0000
  C   C57       1.0  0.86593  0.67033  0.31086  1.0000
  C   C58       1.0  0.90182  0.66832  0.31629  1.0000
  H   H36       1.0  0.92904  0.69356  0.30341  1.0000
  H   H37       1.0  0.72886  0.63268  0.17953  1.0000
  C   C59       1.0  0.86944  0.70969  0.28739  1.0000
  H   H38       1.0  0.84061  0.70890  0.28787  1.0000
  H   H39       1.0  0.88240  0.71873  0.22062  1.0000
  H   H40       1.0  0.88921  0.73266  0.33519  1.0000
  N   N8        1.0  0.67884  0.62370  0.30596  1.0000
  C   C60       1.0  0.46343  0.18382  0.31807  1.0000
  C   C61       1.0  0.45929  0.20332  0.24243  1.0000
  N   N9        1.0  0.45674  0.23720  0.25202  1.0000
  C   C62       1.0  0.42033  0.29166  0.31082  1.0000
  C   C63       1.0  0.42233  0.32955  0.31626  1.0000
  H   H41       1.0  0.39709  0.33152  0.30340  1.0000
  H   H42       1.0  0.45799  0.19221  0.17961  1.0000
  C   C64       1.0  0.38097  0.25580  0.28737  1.0000
  H   H43       1.0  0.38176  0.22776  0.28784  1.0000
  H   H44       1.0  0.37191  0.25972  0.22061  1.0000
  H   H45       1.0  0.35801  0.25261  0.33519  1.0000
  N   N10       1.0  0.46694  0.15119  0.30610  1.0000
  C   C65       1.0  0.90682  0.37563  0.31794  1.0000
  C   C66       1.0  0.88732  0.35195  0.24234  1.0000
  N   N11       1.0  0.85345  0.31551  0.25201  1.0000
  C   C67       1.0  0.79898  0.22468  0.31088  1.0000
  C   C68       1.0  0.76108  0.18880  0.31631  1.0000
  H   H46       1.0  0.75909  0.16158  0.30342  1.0000
  H   H47       1.0  0.89842  0.36173  0.17951  1.0000
  C   C69       1.0  0.83482  0.22116  0.28741  1.0000
  H   H48       1.0  0.86288  0.24999  0.28791  1.0000
  H   H49       1.0  0.83091  0.20820  0.22065  1.0000
  H   H50       1.0  0.83801  0.20138  0.33522  1.0000
  N   N12       1.0  0.93945  0.41177  0.30590  1.0000
  C   C70       1.0  0.02620  0.57979  0.32927  1.0000
  C   C71       1.0  0.98699  0.57566  0.32673  1.0000
  C   C72       1.0  0.98262  0.61051  0.32256  1.0000
  C   C73       1.0  0.01751  0.64893  0.32986  1.0000
  C   C74       1.0  0.05637  0.65377  0.33770  1.0000
  C   C75       1.0  0.06095  0.61911  0.33394  1.0000
  C   C76       1.0  0.95316  0.53631  0.33113  1.0000
  C   C77       1.0  0.09932  0.62227  0.33697  1.0000
  H   H51       1.0  0.01456  0.67416  0.33000  1.0000
  C   C78       1.0  0.03062  0.54471  0.32923  1.0000
  C   C79       1.0  0.99586  0.50538  0.33377  1.0000
  C   C80       1.0  0.00043  0.47072  0.33738  1.0000
  C   C81       1.0  0.03931  0.47557  0.32970  1.0000
  C   C82       1.0  0.07421  0.51399  0.32252  1.0000
  C   C83       1.0  0.06982  0.54884  0.32674  1.0000
  C   C84       1.0  0.95749  0.50222  0.33677  1.0000
  H   H52       1.0  0.04226  0.45034  0.32981  1.0000
  C   C85       1.0  0.10366  0.58819  0.33125  1.0000
  H   H53       1.0  0.93170  0.47483  0.34120  1.0000
  H   H54       1.0  0.92447  0.53168  0.33363  1.0000
  H   H55       1.0  0.13234  0.59281  0.33388  1.0000
  H   H56       1.0  0.12511  0.64965  0.34161  1.0000
  C   C86       1.0  0.08753  0.69204  0.35905  1.0000
  C   C87       1.0  0.11139  0.51636  0.30847  1.0000
  C   C88       1.0  0.96929  0.43245  0.35883  1.0000
  C   C89       1.0  0.94544  0.60815  0.30846  1.0000
  H   H57       1.0  0.08617  0.70328  0.41806  1.0000
  H   H58       1.0  0.97066  0.42124  0.41788  1.0000
  H   H59       1.0  0.92627  0.58765  0.26553  1.0000
  C   C90       1.0  0.39860  0.49154  0.35910  1.0000
  H   H60       1.0  0.38736  0.47894  0.41811  1.0000
  C   C91       1.0  0.26585  0.49197  0.33236  1.0000
  C   C92       1.0  0.28840  0.49694  0.41159  1.0000
  C   C93       1.0  0.32652  0.49979  0.40247  1.0000
  H   H61       1.0  0.34353  0.50402  0.45850  1.0000
  C   C94       1.0  0.22788  0.48968  0.33121  1.0000
  C   C95       1.0  0.15577  0.49225  0.33909  1.0000
  C   C96       1.0  0.19345  0.52641  0.35812  1.0000
  N   N13       1.0  0.22745  0.52386  0.35390  1.0000
  H   H62       1.0  0.19553  0.55304  0.37697  1.0000
  C   C97       1.0  0.27418  0.49838  0.50335  1.0000
  H   H63       1.0  0.24382  0.49406  0.50477  1.0000
  H   H64       1.0  0.29457  0.52754  0.53379  1.0000
  H   H65       1.0  0.27400  0.47466  0.54422  1.0000
  N   N14       1.0  0.12139  0.49258  0.34694  1.0000
  C   C98       1.0  0.59870  0.86995  0.33240  1.0000
  C   C99       1.0  0.59369  0.88751  0.41160  1.0000
  C   C100      1.0  0.59083  0.92278  0.40246  1.0000
  H   H66       1.0  0.58659  0.93556  0.45847  1.0000
  C   C101      1.0  0.60099  0.83427  0.33128  1.0000
  C   C102      1.0  0.59840  0.75958  0.33912  1.0000
  C   C103      1.0  0.56425  0.76312  0.35821  1.0000
  N   N15       1.0  0.56681  0.79967  0.35398  1.0000
  H   H67       1.0  0.53762  0.73857  0.37702  1.0000
  C   C104      1.0  0.59225  0.87188  0.50338  1.0000
  H   H68       1.0  0.59659  0.84585  0.50482  1.0000
  H   H69       1.0  0.56309  0.86309  0.53380  1.0000
  H   H70       1.0  0.61596  0.89542  0.54424  1.0000
  N   N16       1.0  0.59807  0.72487  0.34695  1.0000
  C   C105      1.0  0.22071  0.82478  0.33240  1.0000
  C   C106      1.0  0.20313  0.80222  0.41160  1.0000
  C   C107      1.0  0.16786  0.76409  0.40246  1.0000
  H   H71       1.0  0.15507  0.74708  0.45847  1.0000
  C   C108      1.0  0.25638  0.86276  0.33131  1.0000
  C   C109      1.0  0.33105  0.93487  0.33927  1.0000
  C   C110      1.0  0.32753  0.89718  0.35826  1.0000
  N   N17       1.0  0.29099  0.86319  0.35397  1.0000
  H   H72       1.0  0.35209  0.89510  0.37700  1.0000
  C   C111      1.0  0.21876  0.81642  0.50339  1.0000
  H   H73       1.0  0.24480  0.84678  0.50484  1.0000
  H   H74       1.0  0.22753  0.79604  0.53384  1.0000
  H   H75       1.0  0.19521  0.81660  0.54423  1.0000
  N   N18       1.0  0.36577  0.96925  0.34707  1.0000
  C   C112      1.0  0.79095  0.63249  0.33232  1.0000
  C   C113      1.0  0.76839  0.62751  0.41152  1.0000
  C   C114      1.0  0.73026  0.62465  0.40236  1.0000
  H   H76       1.0  0.71325  0.62044  0.45837  1.0000
  C   C115      1.0  0.82893  0.63479  0.33123  1.0000
  C   C116      1.0  0.90104  0.63223  0.33914  1.0000
  C   C117      1.0  0.86337  0.59808  0.35828  1.0000
  N   N19       1.0  0.82937  0.60062  0.35398  1.0000
  H   H77       1.0  0.86129  0.57145  0.37709  1.0000
  C   C118      1.0  0.78260  0.62612  0.50331  1.0000
  H   H78       1.0  0.81296  0.63045  0.50476  1.0000
  H   H79       1.0  0.76222  0.59696  0.53379  1.0000
  H   H80       1.0  0.78277  0.64984  0.54412  1.0000
  N   N20       1.0  0.93542  0.63190  0.34701  1.0000
  C   C119      1.0  0.45817  0.25452  0.33232  1.0000
  C   C120      1.0  0.46312  0.23694  0.41156  1.0000
  C   C121      1.0  0.46597  0.20167  0.40245  1.0000
  H   H81       1.0  0.47019  0.18888  0.45847  1.0000
  C   C122      1.0  0.45587  0.29020  0.33118  1.0000
  C   C123      1.0  0.45842  0.36487  0.33910  1.0000
  C   C124      1.0  0.49258  0.36135  0.35817  1.0000
  N   N21       1.0  0.49004  0.32481  0.35392  1.0000
  H   H82       1.0  0.51920  0.38590  0.37706  1.0000
  C   C125      1.0  0.46453  0.25258  0.50333  1.0000
  H   H83       1.0  0.46022  0.27862  0.50474  1.0000
  H   H84       1.0  0.49368  0.26135  0.53380  1.0000
  H   H85       1.0  0.44080  0.22904  0.54416  1.0000
  N   N22       1.0  0.45874  0.39957  0.34698  1.0000
  C   C126      1.0  0.83614  0.29966  0.33234  1.0000
  C   C127      1.0  0.85371  0.32224  0.41152  1.0000
  C   C128      1.0  0.88898  0.36037  0.40234  1.0000
  H   H86       1.0  0.90177  0.37740  0.45833  1.0000
  C   C129      1.0  0.80046  0.26169  0.33127  1.0000
  C   C130      1.0  0.72577  0.18959  0.33915  1.0000
  C   C131      1.0  0.72931  0.22727  0.35824  1.0000
  N   N23       1.0  0.76585  0.26126  0.35398  1.0000
  H   H87       1.0  0.70476  0.22936  0.37707  1.0000
  C   C132      1.0  0.83809  0.30805  0.50332  1.0000
  H   H88       1.0  0.81206  0.27769  0.50479  1.0000
  H   H89       1.0  0.82931  0.32844  0.53374  1.0000
  H   H90       1.0  0.86165  0.30790  0.54416  1.0000
  N   N24       1.0  0.69106  0.15521  0.34701  1.0000
