data_image0
_chemical_formula_structural       C3NC3NC5NC4NC35H25C2NC2ONH2C2NC2ONH2C18H17NCHNCH
_chemical_formula_sum              "C78 N10 H48 O2"
_cell_length_a       29.9493
_cell_length_b       29.9492
_cell_length_c       14.8726
_cell_angle_alpha    90
_cell_angle_beta     90
_cell_angle_gamma    90.0717

_space_group_name_H-M_alt    "P 1"
_space_group_IT_number       1

loop_
  _space_group_symop_operation_xyz
  'x, y, z'

loop_
  _atom_site_type_symbol
  _atom_site_label
  _atom_site_symmetry_multiplicity
  _atom_site_fract_x
  _atom_site_fract_y
  _atom_site_fract_z
  _atom_site_occupancy
  C   C1        1.0  0.88634  0.92135  0.33330  1.0000
  C   C2        1.0  0.91904  0.88889  0.33202  1.0000
  C   C3        1.0  0.96072  0.90978  0.33786  1.0000
  N   N1        1.0  0.95157  0.95418  0.34116  1.0000
  C   C4        1.0  0.90712  0.96306  0.33841  1.0000
  C   C5        1.0  0.88423  0.00475  0.34011  1.0000
  C   C6        1.0  0.90565  0.04715  0.34113  1.0000
  N   N2        1.0  0.94996  0.05604  0.34100  1.0000
  C   C7        1.0  0.95844  0.10043  0.34110  1.0000
  C   C8        1.0  0.91681  0.12139  0.34138  1.0000
  C   C9        1.0  0.88434  0.08862  0.34125  1.0000
  C   C10       1.0  0.00064  0.12222  0.34210  1.0000
  C   C11       1.0  0.04252  0.09969  0.34330  1.0000
  N   N3        1.0  0.05179  0.05533  0.33997  1.0000
  C   C12       1.0  0.09627  0.04660  0.34266  1.0000
  C   C13       1.0  0.11680  0.08844  0.34882  1.0000
  C   C14       1.0  0.08405  0.12083  0.34835  1.0000
  C   C15       1.0  0.11934  0.00495  0.34098  1.0000
  N   N4        1.0  0.05339  0.95356  0.34001  1.0000
  C   C16       1.0  0.04479  0.90914  0.33962  1.0000
  C   C17       1.0  0.08651  0.88832  0.34026  1.0000
  C   C18       1.0  0.11895  0.92106  0.33886  1.0000
  C   C19       1.0  0.00261  0.88712  0.33860  1.0000
  C   C20       1.0  0.00239  0.83915  0.33749  1.0000
  C   C21       1.0  0.01709  0.81519  0.26106  1.0000
  C   C22       1.0  0.01820  0.76815  0.26118  1.0000
  C   C23       1.0  0.00335  0.74352  0.33669  1.0000
  C   C24       1.0  0.00416  0.69589  0.33640  1.0000
  C   C25       1.0  0.04521  0.62530  0.32065  1.0000
  C   C26       1.0  0.04438  0.67236  0.32098  1.0000
  C   C27       1.0  0.16729  0.00574  0.34055  1.0000
  C   C28       1.0  0.19102  0.02098  0.26420  1.0000
  C   C29       1.0  0.23805  0.02247  0.26397  1.0000
  C   C30       1.0  0.26289  0.00757  0.33909  1.0000
  C   C31       1.0  0.31052  0.00827  0.33803  1.0000
  C   C32       1.0  0.33420  0.04844  0.32228  1.0000
  C   C33       1.0  0.38126  0.04913  0.32114  1.0000
  C   C34       1.0  0.40603  0.00938  0.33258  1.0000
  C   C35       1.0  0.00085  0.17001  0.34280  1.0000
  C   C36       1.0  0.00231  0.26577  0.34358  1.0000
  C   C37       1.0  0.99707  0.24142  0.26250  1.0000
  C   C38       1.0  0.99652  0.19436  0.26194  1.0000
  C   C39       1.0  0.00356  0.31371  0.34387  1.0000
  C   C40       1.0  0.97369  0.33926  0.29115  1.0000
  C   C41       1.0  0.97514  0.38631  0.29139  1.0000
  C   C42       1.0  0.00657  0.41046  0.34390  1.0000
  C   C43       1.0  0.83643  0.00425  0.34033  1.0000
  C   C44       1.0  0.81210  0.99994  0.25942  1.0000
  C   C45       1.0  0.76503  0.00041  0.25992  1.0000
  C   C46       1.0  0.74064  0.00561  0.34097  1.0000
  C   C47       1.0  0.69271  0.00698  0.34128  1.0000
  C   C48       1.0  0.59596  0.01013  0.34189  1.0000
  C   C49       1.0  0.61991  0.97876  0.28901  1.0000
  C   C50       1.0  0.66696  0.97725  0.28848  1.0000
  H   H1        1.0  0.60331  0.95602  0.25000  1.0000
  H   H2        1.0  0.68228  0.95341  0.25010  1.0000
  H   H3        1.0  0.74869  0.99808  0.19968  1.0000
  H   H4        1.0  0.82854  0.99677  0.19942  1.0000
  H   H5        1.0  0.85287  0.91492  0.32944  1.0000
  H   H6        1.0  0.91269  0.85546  0.32696  1.0000
  H   H7        1.0  0.97410  0.97686  0.34706  1.0000
  H   H8        1.0  0.02931  0.03261  0.33383  1.0000
  H   H9        1.0  0.85076  0.09463  0.34100  1.0000
  H   H10       1.0  0.91052  0.15492  0.34184  1.0000
  H   H11       1.0  0.99316  0.17796  0.20193  1.0000
  H   H12       1.0  0.99469  0.25777  0.20229  1.0000
  H   H13       1.0  0.09021  0.15434  0.35231  1.0000
  H   H14       1.0  0.15019  0.09510  0.35356  1.0000
  H   H15       1.0  0.15249  0.91488  0.33810  1.0000
  H   H16       1.0  0.17412  0.03145  0.20823  1.0000
  H   H17       1.0  0.25408  0.03364  0.20747  1.0000
  H   H18       1.0  0.39730  0.07876  0.30928  1.0000
  H   H19       1.0  0.31730  0.07774  0.31266  1.0000
  H   H20       1.0  0.07363  0.68937  0.31105  1.0000
  H   H21       1.0  0.07487  0.60937  0.30897  1.0000
  H   H22       1.0  0.02927  0.75194  0.20485  1.0000
  H   H23       1.0  0.02772  0.83193  0.20499  1.0000
  H   H24       1.0  0.94984  0.32380  0.25293  1.0000
  H   H25       1.0  0.95234  0.40276  0.25238  1.0000
  C   C51       1.0  0.00629  0.55292  0.32884  1.0000
  C   C52       1.0  0.00765  0.45864  0.34198  1.0000
  N   N5        1.0  0.98279  0.48115  0.28002  1.0000
  C   C53       1.0  0.98046  0.52625  0.26932  1.0000
  C   C54       1.0  0.95361  0.54216  0.19766  1.0000
  O   O1        1.0  0.91762  0.51769  0.17291  1.0000
  N   N6        1.0  0.96472  0.57719  0.14476  1.0000
  H   H26       1.0  0.99299  0.59274  0.15154  1.0000
  H   H27       1.0  0.94640  0.58461  0.09291  1.0000
  C   C55       1.0  0.45346  0.01001  0.32831  1.0000
  C   C56       1.0  0.54778  0.01126  0.34040  1.0000
  N   N7        1.0  0.52502  0.98656  0.27845  1.0000
  C   C57       1.0  0.47988  0.98431  0.26820  1.0000
  C   C58       1.0  0.46363  0.95760  0.19657  1.0000
  O   O2        1.0  0.48806  0.92179  0.17094  1.0000
  N   N8        1.0  0.42831  0.96870  0.14449  1.0000
  H   H28       1.0  0.41330  0.99723  0.15114  1.0000
  H   H29       1.0  0.42116  0.95081  0.09187  1.0000
  C   C59       1.0  0.09773  0.96256  0.34001  1.0000
  C   C60       1.0  0.98771  0.76748  0.41238  1.0000
  C   C61       1.0  0.98787  0.81454  0.41328  1.0000
  C   C62       1.0  0.96473  0.67085  0.35100  1.0000
  C   C63       1.0  0.96531  0.62381  0.34814  1.0000
  C   C64       1.0  0.00554  0.60036  0.33264  1.0000
  C   C65       1.0  0.23917  0.99179  0.41500  1.0000
  C   C66       1.0  0.19211  0.99154  0.41625  1.0000
  C   C67       1.0  0.38244  0.96921  0.34834  1.0000
  C   C68       1.0  0.33542  0.96876  0.35204  1.0000
  C   C69       1.0  0.00569  0.19390  0.42411  1.0000
  C   C70       1.0  0.00658  0.24095  0.42430  1.0000
  C   C71       1.0  0.03654  0.38452  0.39618  1.0000
  C   C72       1.0  0.03498  0.33748  0.39647  1.0000
  C   C73       1.0  0.81250  0.00908  0.42157  1.0000
  C   C74       1.0  0.76545  0.00986  0.42172  1.0000
  C   C75       1.0  0.66913  0.03840  0.39410  1.0000
  C   C76       1.0  0.62209  0.04001  0.39413  1.0000
  H   H30       1.0  0.60746  0.06422  0.43228  1.0000
  H   H31       1.0  0.68613  0.06139  0.43183  1.0000
  H   H32       1.0  0.74942  0.01299  0.48213  1.0000
  H   H33       1.0  0.82921  0.01230  0.48127  1.0000
  H   H34       1.0  0.00878  0.17715  0.48378  1.0000
  H   H35       1.0  0.00969  0.25699  0.48472  1.0000
  H   H36       1.0  0.09304  0.85485  0.34073  1.0000
  H   H37       1.0  0.17600  0.98049  0.47273  1.0000
  H   H38       1.0  0.25603  0.98116  0.47089  1.0000
  H   H39       1.0  0.31942  0.93901  0.36281  1.0000
  H   H40       1.0  0.39937  0.93992  0.35785  1.0000
  H   H41       1.0  0.97714  0.83081  0.46980  1.0000
  H   H42       1.0  0.97716  0.75079  0.46857  1.0000
  H   H43       1.0  0.93608  0.60676  0.35802  1.0000
  H   H44       1.0  0.93496  0.68673  0.36167  1.0000
  H   H45       1.0  0.05806  0.32061  0.43415  1.0000
  H   H46       1.0  0.06076  0.39931  0.43415  1.0000
  N   N9        1.0  0.03131  0.53127  0.39140  1.0000
  C   C77       1.0  0.03326  0.48618  0.39977  1.0000
  H   H47       1.0  0.05259  0.47346  0.44996  1.0000
  N   N10       1.0  0.47536  0.03488  0.39084  1.0000
  C   C78       1.0  0.52048  0.03674  0.39877  1.0000
  H   H48       1.0  0.53339  0.05598  0.44894  1.0000
