data_image0
_chemical_formula_structural       C3NC3NC5NC5NC36H26C4H4C3HCH3NC3HCH3NC16H16C3H2NC3H2N
_chemical_formula_sum              "C86 N8 H58"
_cell_length_a       34.4406
_cell_length_b       34.4406
_cell_length_c       14.705
_cell_angle_alpha    90
_cell_angle_beta     90
_cell_angle_gamma    90.1687

_space_group_name_H-M_alt    "P 1"
_space_group_IT_number       1

loop_
  _space_group_symop_operation_xyz
  'x, y, z'

loop_
  _atom_site_type_symbol
  _atom_site_label
  _atom_site_symmetry_multiplicity
  _atom_site_fract_x
  _atom_site_fract_y
  _atom_site_fract_z
  _atom_site_occupancy
  C   C1        1.0  0.11155  0.08332  0.33604  1.0000
  C   C2        1.0  0.08301  0.11145  0.33608  1.0000
  C   C3        1.0  0.04680  0.09303  0.33698  1.0000
  N   N1        1.0  0.05495  0.05441  0.33706  1.0000
  C   C4        1.0  0.09368  0.04683  0.33604  1.0000
  C   C5        1.0  0.11380  0.01062  0.33534  1.0000
  C   C6        1.0  0.09504  0.97369  0.33534  1.0000
  N   N2        1.0  0.05647  0.96571  0.33611  1.0000
  C   C7        1.0  0.04901  0.92705  0.33496  1.0000
  C   C8        1.0  0.08530  0.90905  0.33365  1.0000
  C   C9        1.0  0.11352  0.93766  0.33349  1.0000
  C   C10       1.0  0.01234  0.90777  0.33514  1.0000
  C   C11       1.0  0.97586  0.92733  0.33606  1.0000
  N   N3        1.0  0.96772  0.96595  0.33659  1.0000
  C   C12       1.0  0.92899  0.97352  0.33640  1.0000
  C   C13       1.0  0.91112  0.93702  0.33641  1.0000
  C   C14       1.0  0.93966  0.90890  0.33581  1.0000
  C   C15       1.0  0.90887  0.00972  0.33642  1.0000
  C   C16       1.0  0.92763  0.04664  0.33668  1.0000
  N   N4        1.0  0.96619  0.05464  0.33732  1.0000
  C   C17       1.0  0.97365  0.09330  0.33657  1.0000
  C   C18       1.0  0.93734  0.11128  0.33575  1.0000
  C   C19       1.0  0.90912  0.08267  0.33534  1.0000
  C   C20       1.0  0.01031  0.11260  0.33672  1.0000
  C   C21       1.0  0.01033  0.15434  0.33411  1.0000
  C   C22       1.0  0.00395  0.17424  0.25145  1.0000
  C   C23       1.0  0.00265  0.21514  0.24881  1.0000
  C   C24       1.0  0.00775  0.23799  0.32830  1.0000
  C   C25       1.0  0.00483  0.27976  0.32515  1.0000
  C   C26       1.0  0.99943  0.36348  0.31213  1.0000
  C   C27       1.0  0.97341  0.33870  0.26499  1.0000
  C   C28       1.0  0.97598  0.29799  0.27150  1.0000
  C   C29       1.0  0.86713  0.00901  0.33370  1.0000
  C   C30       1.0  0.84734  0.00215  0.25107  1.0000
  C   C31       1.0  0.80644  0.00064  0.24815  1.0000
  C   C32       1.0  0.78348  0.00605  0.32732  1.0000
  C   C33       1.0  0.74169  0.00316  0.32386  1.0000
  C   C34       1.0  0.72333  0.97420  0.27048  1.0000
  C   C35       1.0  0.68261  0.97169  0.26363  1.0000
  C   C36       1.0  0.65796  0.99788  0.31017  1.0000
  C   C37       1.0  0.01229  0.86605  0.33280  1.0000
  C   C38       1.0  0.01456  0.78237  0.32801  1.0000
  C   C39       1.0  0.01836  0.80497  0.24774  1.0000
  C   C40       1.0  0.01720  0.84590  0.24990  1.0000
  C   C41       1.0  0.01756  0.74058  0.32590  1.0000
  C   C42       1.0  0.04556  0.72196  0.27052  1.0000
  C   C43       1.0  0.04950  0.68124  0.26928  1.0000
  C   C44       1.0  0.02553  0.65687  0.32306  1.0000
  C   C45       1.0  0.15554  0.01131  0.33300  1.0000
  C   C46       1.0  0.17563  0.01862  0.25093  1.0000
  C   C47       1.0  0.21656  0.02008  0.24875  1.0000
  C   C48       1.0  0.23922  0.01408  0.32812  1.0000
  C   C49       1.0  0.28101  0.01712  0.32614  1.0000
  C   C50       1.0  0.36479  0.02484  0.32312  1.0000
  C   C51       1.0  0.34046  0.05067  0.27450  1.0000
  C   C52       1.0  0.29971  0.04684  0.27578  1.0000
  H   H1        1.0  0.35225  0.07295  0.23740  1.0000
  H   H2        1.0  0.28369  0.06691  0.24093  1.0000
  H   H3        1.0  0.22977  0.02529  0.18762  1.0000
  H   H4        1.0  0.16050  0.02321  0.19201  1.0000
  H   H5        1.0  0.14066  0.08915  0.33556  1.0000
  H   H6        1.0  0.08838  0.14065  0.33542  1.0000
  H   H7        1.0  0.03534  0.03452  0.33721  1.0000
  H   H8        1.0  0.98733  0.98584  0.33634  1.0000
  H   H9        1.0  0.14272  0.93250  0.33203  1.0000
  H   H10       1.0  0.09085  0.87992  0.33262  1.0000
  H   H11       1.0  0.02030  0.86099  0.19035  1.0000
  H   H12       1.0  0.02179  0.79173  0.18601  1.0000
  H   H13       1.0  0.93430  0.87970  0.33521  1.0000
  H   H14       1.0  0.88200  0.93120  0.33659  1.0000
  H   H15       1.0  0.93176  0.14041  0.33519  1.0000
  H   H16       1.0  0.87992  0.08782  0.33420  1.0000
  H   H17       1.0  0.86266  0.99797  0.19224  1.0000
  H   H18       1.0  0.79349  0.99590  0.18652  1.0000
  H   H19       1.0  0.67108  0.95038  0.22313  1.0000
  H   H20       1.0  0.73955  0.95423  0.23581  1.0000
  H   H21       1.0  0.95614  0.28167  0.23641  1.0000
  H   H22       1.0  0.95217  0.35011  0.22428  1.0000
  H   H23       1.0  0.99815  0.22817  0.18720  1.0000
  H   H24       1.0  0.99986  0.15899  0.19245  1.0000
  H   H25       1.0  0.06435  0.73803  0.23182  1.0000
  H   H26       1.0  0.07053  0.66952  0.22846  1.0000
  C   C53       1.0  0.99699  0.40372  0.29870  1.0000
  C   C54       1.0  0.61773  0.99552  0.29644  1.0000
  C   C55       1.0  0.03113  0.61656  0.32084  1.0000
  C   C56       1.0  0.40519  0.03018  0.32059  1.0000
  H   H27       1.0  0.98235  0.41278  0.24440  1.0000
  H   H28       1.0  0.41530  0.05514  0.29564  1.0000
  H   H29       1.0  0.05598  0.60673  0.29500  1.0000
  H   H30       1.0  0.60862  0.98107  0.24184  1.0000
  C   C57       1.0  0.01026  0.46894  0.34685  1.0000
  C   C58       1.0  0.00789  0.48977  0.26393  1.0000
  C   C59       1.0  0.00658  0.53095  0.26109  1.0000
  H   H31       1.0  0.00709  0.47459  0.20422  1.0000
  C   C60       1.0  0.00234  0.55103  0.17210  1.0000
  H   H32       1.0  0.99904  0.53078  0.11547  1.0000
  H   H33       1.0  0.02792  0.56886  0.15866  1.0000
  H   H34       1.0  0.97672  0.56962  0.17332  1.0000
  N   N5        1.0  0.01105  0.42989  0.35242  1.0000
  C   C61       1.0  0.55258  0.00867  0.34495  1.0000
  C   C62       1.0  0.53167  0.00637  0.26212  1.0000
  C   C63       1.0  0.49046  0.00517  0.25949  1.0000
  H   H35       1.0  0.54678  0.00556  0.20232  1.0000
  C   C64       1.0  0.47024  0.00108  0.17062  1.0000
  H   H36       1.0  0.49039  0.99787  0.11381  1.0000
  H   H37       1.0  0.45254  0.02669  0.15757  1.0000
  H   H38       1.0  0.45149  0.97547  0.17178  1.0000
  N   N6        1.0  0.59163  0.00939  0.35041  1.0000
  C   C65       1.0  0.01492  0.21774  0.41058  1.0000
  C   C66       1.0  0.01598  0.17675  0.41362  1.0000
  C   C67       1.0  0.03039  0.30457  0.37392  1.0000
  C   C68       1.0  0.02789  0.34549  0.36735  1.0000
  C   C69       1.0  0.80363  0.01360  0.40960  1.0000
  C   C70       1.0  0.84462  0.01490  0.41291  1.0000
  C   C71       1.0  0.67608  0.02646  0.36513  1.0000
  C   C72       1.0  0.71700  0.02890  0.37202  1.0000
  C   C73       1.0  0.00802  0.84389  0.41313  1.0000
  C   C74       1.0  0.00899  0.80291  0.41060  1.0000
  C   C75       1.0  0.99728  0.67527  0.37810  1.0000
  C   C76       1.0  0.99354  0.71615  0.37973  1.0000
  C   C77       1.0  0.17779  0.00492  0.41238  1.0000
  C   C78       1.0  0.21877  0.00613  0.40981  1.0000
  C   C79       1.0  0.30535  0.99129  0.37496  1.0000
  C   C80       1.0  0.34626  0.99491  0.37319  1.0000
  H   H39       1.0  0.36244  0.97553  0.40974  1.0000
  H   H40       1.0  0.29344  0.96900  0.41162  1.0000
  H   H41       1.0  0.23358  0.00231  0.46942  1.0000
  H   H42       1.0  0.16421  0.99970  0.47310  1.0000
  H   H43       1.0  0.00468  0.85754  0.47445  1.0000
  H   H44       1.0  0.00691  0.78818  0.47081  1.0000
  H   H45       1.0  0.85801  0.01983  0.47398  1.0000
  H   H46       1.0  0.78859  0.01714  0.46899  1.0000
  H   H47       1.0  0.72870  0.05077  0.41039  1.0000
  H   H48       1.0  0.65960  0.04643  0.39909  1.0000
  H   H49       1.0  0.02047  0.16328  0.47474  1.0000
  H   H50       1.0  0.01815  0.23271  0.47020  1.0000
  H   H51       1.0  0.04771  0.36207  0.40183  1.0000
  H   H52       1.0  0.05214  0.29298  0.41262  1.0000
  H   H53       1.0  0.97252  0.72798  0.42023  1.0000
  H   H54       1.0  0.97932  0.65903  0.41855  1.0000
  C   C81       1.0  0.00856  0.55234  0.34386  1.0000
  C   C82       1.0  0.01090  0.53166  0.42667  1.0000
  C   C83       1.0  0.01219  0.49073  0.42801  1.0000
  H   H55       1.0  0.01176  0.54642  0.48707  1.0000
  H   H56       1.0  0.01386  0.47679  0.48937  1.0000
  N   N7        1.0  0.00586  0.59121  0.34722  1.0000
  C   C84       1.0  0.46918  0.00717  0.34237  1.0000
  C   C85       1.0  0.48994  0.00942  0.42508  1.0000
  C   C86       1.0  0.53089  0.01062  0.42622  1.0000
  H   H57       1.0  0.47525  0.01031  0.48555  1.0000
  H   H58       1.0  0.54489  0.01224  0.48750  1.0000
  N   N8        1.0  0.43029  0.00461  0.34588  1.0000
