data_image0
_chemical_formula_structural       C3O2H2CH2C3O2H2CH2C3O2H2CH2C3O2H2CH2C3O2H2CH2C3O2H2CH2C3OHOHCH2C3OHOHCH2C3OHOHCH2C3OHOHCH2C3OHOHCH2C3OHOHCH2C3O2H2CH2C3O2H2CH2C3O2H2CH2C3O2H2CH2C3O2H2CH2C3O2H2CH2C6H3NHNHNHC6H3NHNHNHC6H3NHNHNHC6H3NHNHNHC6H3NHNHNHC6H3NHNHNHC6H3NHNHNHC6H3NHNHNHC6H3NHNHNHC6H3NHNHNHC6H3NHNHNHC6H3NHNHNHC3OHOHCH2C3OHOHCH2C3OHOHCH2C3OHOHCH2C3OHOHCH2C3OHOHCH2C3O2H2CH2C3O2H2CH2C3O2H2CH2C3O2H2CH2C3O2H2CH2C3O2H2CH2C3OHOHCH2C3OHOHCH2C3OHOHCH2C3OHOHCH2C3OHOHCH2C3OHOHCH2
_chemical_formula_sum              "C216 O72 H216 N36"
_cell_length_a       58.8985
_cell_length_b       58.8986
_cell_length_c       15.058
_cell_angle_alpha    90
_cell_angle_beta     90
_cell_angle_gamma    120

_space_group_name_H-M_alt    "P 1"
_space_group_IT_number       1

loop_
  _space_group_symop_operation_xyz
  'x, y, z'

loop_
  _atom_site_type_symbol
  _atom_site_label
  _atom_site_symmetry_multiplicity
  _atom_site_fract_x
  _atom_site_fract_y
  _atom_site_fract_z
  _atom_site_occupancy
  C   C1        1.0  0.19276  0.43529  0.30358  1.0000
  C   C2        1.0  0.23427  0.43566  0.28438  1.0000
  C   C3        1.0  0.21201  0.43522  0.24756  1.0000
  O   O1        1.0  0.25148  0.43375  0.22852  1.0000
  O   O2        1.0  0.20906  0.43363  0.15761  1.0000
  H   H1        1.0  0.26180  0.45092  0.19955  1.0000
  H   H2        1.0  0.21830  0.45177  0.13547  1.0000
  C   C4        1.0  0.16991  0.43644  0.26670  1.0000
  H   H3        1.0  0.15247  0.41775  0.28242  1.0000
  H   H4        1.0  0.17068  0.43860  0.19449  1.0000
  C   C5        1.0  0.58005  0.77514  0.29939  1.0000
  C   C6        1.0  0.58176  0.81673  0.26546  1.0000
  C   C7        1.0  0.58064  0.79338  0.23675  1.0000
  O   O3        1.0  0.58375  0.83451  0.20334  1.0000
  O   O4        1.0  0.58123  0.78944  0.14782  1.0000
  H   H5        1.0  0.56624  0.82758  0.17684  1.0000
  H   H6        1.0  0.56289  0.78059  0.12761  1.0000
  C   C8        1.0  0.57792  0.74993  0.27089  1.0000
  H   H7        1.0  0.59653  0.75115  0.28773  1.0000
  H   H8        1.0  0.57526  0.74684  0.19917  1.0000
  C   C9        1.0  0.23782  0.82299  0.30433  1.0000
  C   C10       1.0  0.19663  0.78245  0.27301  1.0000
  C   C11       1.0  0.21943  0.80502  0.24282  1.0000
  O   O5        1.0  0.17861  0.76634  0.21204  1.0000
  O   O6        1.0  0.22268  0.80947  0.15369  1.0000
  H   H9        1.0  0.18576  0.75613  0.18421  1.0000
  H   H10       1.0  0.23179  0.80035  0.13233  1.0000
  C   C12       1.0  0.26262  0.84631  0.27426  1.0000
  H   H11       1.0  0.26132  0.86356  0.29250  1.0000
  H   H12       1.0  0.26518  0.84681  0.20221  1.0000
  C   C13       1.0  0.80974  0.57942  0.29074  1.0000
  C   C14       1.0  0.76919  0.58132  0.27962  1.0000
  C   C15       1.0  0.79017  0.58024  0.23860  1.0000
  O   O7        1.0  0.75178  0.58401  0.22717  1.0000
  O   O8        1.0  0.79185  0.58148  0.14829  1.0000
  H   H13       1.0  0.74041  0.56684  0.19948  1.0000
  H   H14       1.0  0.78157  0.56332  0.12689  1.0000
  C   C16       1.0  0.83164  0.57760  0.24867  1.0000
  H   H15       1.0  0.84912  0.59685  0.25648  1.0000
  H   H16       1.0  0.82891  0.57367  0.17742  1.0000
  C   C17       1.0  0.43118  0.24724  0.30808  1.0000
  C   C18       1.0  0.43171  0.20619  0.28772  1.0000
  C   C19       1.0  0.43110  0.22800  0.25156  1.0000
  O   O9        1.0  0.42969  0.18713  0.23134  1.0000
  O   O10       1.0  0.42923  0.22939  0.16174  1.0000
  H   H17       1.0  0.44684  0.19402  0.20212  1.0000
  H   H18       1.0  0.44730  0.23830  0.13894  1.0000
  C   C20       1.0  0.43200  0.27117  0.27183  1.0000
  H   H19       1.0  0.41318  0.26960  0.28774  1.0000
  H   H20       1.0  0.43415  0.27268  0.19964  1.0000
  C   C21       1.0  0.76490  0.20420  0.28564  1.0000
  C   C22       1.0  0.80730  0.24480  0.27376  1.0000
  C   C23       1.0  0.78521  0.22373  0.23315  1.0000
  O   O11       1.0  0.82735  0.26217  0.22105  1.0000
  O   O12       1.0  0.78468  0.22193  0.14287  1.0000
  H   H21       1.0  0.82148  0.27346  0.19311  1.0000
  H   H22       1.0  0.77679  0.23220  0.12139  1.0000
  C   C24       1.0  0.74117  0.18218  0.24398  1.0000
  H   H23       1.0  0.74310  0.16479  0.25142  1.0000
  H   H24       1.0  0.73982  0.18489  0.17277  1.0000
  C   C25       1.0  0.12677  0.56149  0.24470  1.0000
  C   C26       1.0  0.12673  0.58542  0.25007  1.0000
  C   C27       1.0  0.12682  0.59686  0.33320  1.0000
  O   O13       1.0  0.12756  0.59785  0.17259  1.0000
  H   H25       1.0  0.10927  0.59065  0.15343  1.0000
  O   O14       1.0  0.12857  0.55285  0.16255  1.0000
  H   H26       1.0  0.11112  0.54544  0.13512  1.0000
  C   C28       1.0  0.12611  0.62187  0.33169  1.0000
  H   H27       1.0  0.10855  0.61774  0.29385  1.0000
  H   H28       1.0  0.14324  0.63593  0.29344  1.0000
  C   C29       1.0  0.45127  0.58089  0.24446  1.0000
  C   C30       1.0  0.42835  0.55594  0.24726  1.0000
  C   C31       1.0  0.41745  0.54305  0.32902  1.0000
  O   O15       1.0  0.41624  0.54490  0.16884  1.0000
  H   H29       1.0  0.42434  0.53486  0.14697  1.0000
  O   O16       1.0  0.45928  0.59275  0.16385  1.0000
  H   H30       1.0  0.46733  0.58386  0.13257  1.0000
  C   C32       1.0  0.39316  0.51670  0.32528  1.0000
  H   H31       1.0  0.39759  0.50404  0.28423  1.0000
  H   H32       1.0  0.37850  0.51955  0.29002  1.0000
  C   C33       1.0  0.42943  0.88420  0.24593  1.0000
  C   C34       1.0  0.45349  0.88440  0.25100  1.0000
  C   C35       1.0  0.46505  0.88457  0.33396  1.0000
  O   O17       1.0  0.46502  0.88354  0.17339  1.0000
  H   H33       1.0  0.47598  0.90182  0.15381  1.0000
  O   O18       1.0  0.41879  0.88214  0.16398  1.0000
  H   H34       1.0  0.42885  0.89945  0.13561  1.0000
  C   C36       1.0  0.49099  0.88572  0.33213  1.0000
  H   H35       1.0  0.50413  0.90325  0.29364  1.0000
  H   H36       1.0  0.48812  0.86858  0.29444  1.0000
  C   C37       1.0  0.88766  0.46409  0.24769  1.0000
  C   C38       1.0  0.88781  0.44017  0.24990  1.0000
  C   C39       1.0  0.88805  0.42816  0.33143  1.0000
  O   O19       1.0  0.88660  0.42819  0.17103  1.0000
  H   H37       1.0  0.90481  0.43552  0.15061  1.0000
  O   O20       1.0  0.88559  0.47332  0.16696  1.0000
  H   H38       1.0  0.90307  0.48134  0.13944  1.0000
  C   C40       1.0  0.88844  0.40296  0.32710  1.0000
  H   H39       1.0  0.90547  0.40663  0.28698  1.0000
  H   H40       1.0  0.87079  0.38912  0.29062  1.0000
  C   C41       1.0  0.55465  0.44169  0.24290  1.0000
  C   C42       1.0  0.57750  0.46668  0.24624  1.0000
  C   C43       1.0  0.58822  0.47950  0.32825  1.0000
  O   O21       1.0  0.58977  0.47782  0.16811  1.0000
  H   H41       1.0  0.58166  0.48782  0.14600  1.0000
  O   O22       1.0  0.54680  0.42992  0.16209  1.0000
  H   H42       1.0  0.53861  0.43870  0.13098  1.0000
  C   C44       1.0  0.61255  0.50583  0.32517  1.0000
  H   H43       1.0  0.60831  0.51858  0.28385  1.0000
  H   H44       1.0  0.62727  0.50295  0.29047  1.0000
  C   C45       1.0  0.57147  0.12368  0.24745  1.0000
  C   C46       1.0  0.54739  0.12356  0.24845  1.0000
  C   C47       1.0  0.53490  0.12338  0.32935  1.0000
  O   O23       1.0  0.53692  0.12481  0.16901  1.0000
  H   H45       1.0  0.52605  0.10661  0.14856  1.0000
  O   O24       1.0  0.58300  0.12572  0.16722  1.0000
  H   H46       1.0  0.57370  0.10820  0.13995  1.0000
  C   C48       1.0  0.50941  0.12321  0.32374  1.0000
  H   H47       1.0  0.49606  0.10618  0.28365  1.0000
  H   H48       1.0  0.51347  0.14086  0.28675  1.0000
  C   C49       1.0  0.97512  0.37157  0.29294  1.0000
  C   C50       1.0  0.02140  0.40490  0.27020  1.0000
  C   C51       1.0  0.99584  0.38900  0.23673  1.0000
  O   O25       1.0  0.04007  0.42215  0.21335  1.0000
  O   O26       1.0  0.99139  0.39154  0.14933  1.0000
  H   H49       1.0  0.04576  0.41198  0.17719  1.0000
  H   H50       1.0  0.99529  0.37948  0.11633  1.0000
  C   C52       1.0  0.94860  0.35567  0.25183  1.0000
  H   H51       1.0  0.95026  0.34460  0.19615  1.0000
  H   H52       1.0  0.94272  0.36907  0.22362  1.0000
  C   C53       1.0  0.64244  0.62134  0.28948  1.0000
  C   C54       1.0  0.60641  0.63069  0.27064  1.0000
  C   C55       1.0  0.62316  0.62224  0.23570  1.0000
  O   O27       1.0  0.58750  0.62998  0.21660  1.0000
  O   O28       1.0  0.61979  0.61423  0.14927  1.0000
  H   H53       1.0  0.59621  0.64538  0.17747  1.0000
  H   H54       1.0  0.63071  0.63000  0.11361  1.0000
  C   C56       1.0  0.65959  0.61249  0.24644  1.0000
  H   H55       1.0  0.67018  0.62616  0.19226  1.0000
  H   H56       1.0  0.64724  0.59330  0.21581  1.0000
  C   C57       1.0  0.39325  0.03951  0.28604  1.0000
  C   C58       1.0  0.38374  0.99408  0.26736  1.0000
  C   C59       1.0  0.39240  0.01932  0.23246  1.0000
  O   O29       1.0  0.38451  0.97586  0.21358  1.0000
  O   O30       1.0  0.40065  0.02397  0.14628  1.0000
  H   H57       1.0  0.36922  0.96926  0.17394  1.0000
  H   H58       1.0  0.38501  0.01931  0.11012  1.0000
  C   C60       1.0  0.40245  0.06559  0.24310  1.0000
  H   H59       1.0  0.38884  0.06275  0.18899  1.0000
  H   H60       1.0  0.42158  0.07215  0.21239  1.0000
  C   C61       1.0  0.02760  0.64162  0.29731  1.0000
  C   C62       1.0  0.98112  0.62771  0.27432  1.0000
  C   C63       1.0  0.00686  0.63809  0.24096  1.0000
  O   O31       1.0  0.96213  0.62337  0.21403  1.0000
  O   O32       1.0  0.01089  0.64308  0.15220  1.0000
  H   H61       1.0  0.96232  0.64009  0.20738  1.0000
  H   H62       1.0  0.01440  0.66111  0.14373  1.0000
  C   C64       1.0  0.05473  0.65197  0.26257  1.0000
  H   H63       1.0  0.05709  0.65904  0.19413  1.0000
  H   H64       1.0  0.05846  0.63561  0.26175  1.0000
  C   C65       1.0  0.36457  0.39919  0.29154  1.0000
  C   C66       1.0  0.39864  0.38719  0.26978  1.0000
  C   C67       1.0  0.38243  0.39644  0.23588  1.0000
  O   O33       1.0  0.41630  0.38629  0.21356  1.0000
  O   O34       1.0  0.38510  0.40358  0.14859  1.0000
  H   H65       1.0  0.40650  0.37046  0.17694  1.0000
  H   H66       1.0  0.37334  0.38759  0.11515  1.0000
  C   C68       1.0  0.34830  0.40932  0.24991  1.0000
  H   H67       1.0  0.33750  0.39648  0.19414  1.0000
  H   H68       1.0  0.36142  0.42868  0.22174  1.0000
  C   C69       1.0  0.60949  0.98724  0.30137  1.0000
  C   C70       1.0  0.64424  0.03304  0.28063  1.0000
  C   C71       1.0  0.62827  0.00746  0.24671  1.0000
  O   O35       1.0  0.66102  0.05145  0.22225  1.0000
  O   O36       1.0  0.63058  0.00302  0.15921  1.0000
  H   H69       1.0  0.67713  0.05032  0.22275  1.0000
  H   H70       1.0  0.64437  0.99827  0.15587  1.0000
  C   C72       1.0  0.59260  0.96007  0.26728  1.0000
  H   H71       1.0  0.59714  0.95751  0.19877  1.0000
  H   H72       1.0  0.57249  0.95627  0.26708  1.0000
  C   C73       1.0  0.12310  0.48418  0.25568  1.0000
  C   C74       1.0  0.09901  0.46214  0.27966  1.0000
  C   C75       1.0  0.09780  0.43961  0.31716  1.0000
  C   C76       1.0  0.12139  0.43914  0.32649  1.0000
  C   C77       1.0  0.14550  0.45993  0.29519  1.0000
  C   C78       1.0  0.14613  0.48262  0.26117  1.0000
  H   H73       1.0  0.12081  0.42312  0.35505  1.0000
  H   H74       1.0  0.16369  0.49877  0.24540  1.0000
  H   H75       1.0  0.08236  0.46331  0.27376  1.0000
  N   N1        1.0  0.12497  0.50878  0.23948  1.0000
  H   H76       1.0  0.10916  0.50561  0.20162  1.0000
  N   N2        1.0  0.16882  0.45887  0.30763  1.0000
  H   H77       1.0  0.18517  0.47602  0.28841  1.0000
  N   N3        1.0  0.07313  0.41733  0.33720  1.0000
  H   H78       1.0  0.07443  0.40130  0.35690  1.0000
  C   C79       1.0  0.52765  0.65590  0.26381  1.0000
  C   C80       1.0  0.54948  0.65311  0.28434  1.0000
  C   C81       1.0  0.57259  0.67393  0.32077  1.0000
  C   C82       1.0  0.57392  0.69833  0.33236  1.0000
  C   C83       1.0  0.55333  0.70245  0.30451  1.0000
  C   C84       1.0  0.53000  0.68081  0.27180  1.0000
  H   H79       1.0  0.59049  0.71350  0.35937  1.0000
  H   H80       1.0  0.51416  0.68288  0.25725  1.0000
  H   H81       1.0  0.54788  0.63516  0.27595  1.0000
  N   N4        1.0  0.50287  0.63362  0.24515  1.0000
  H   H82       1.0  0.50595  0.62164  0.20353  1.0000
  N   N5        1.0  0.55565  0.72744  0.31704  1.0000
  H   H83       1.0  0.53859  0.72718  0.30029  1.0000
  N   N6        1.0  0.59460  0.67071  0.33637  1.0000
  H   H84       1.0  0.61114  0.68785  0.35430  1.0000
  C   C85       1.0  0.35666  0.88961  0.25884  1.0000
  C   C86       1.0  0.35988  0.91442  0.27935  1.0000
  C   C87       1.0  0.33936  0.91707  0.31653  1.0000
  C   C88       1.0  0.31487  0.89420  0.32949  1.0000
  C   C89       1.0  0.31039  0.86929  0.30250  1.0000
  C   C90       1.0  0.33170  0.86725  0.26846  1.0000
  H   H85       1.0  0.29997  0.89586  0.35748  1.0000
  H   H86       1.0  0.32943  0.84921  0.25498  1.0000
  H   H87       1.0  0.37795  0.93058  0.27088  1.0000
  N   N7        1.0  0.37868  0.88656  0.24179  1.0000
  H   H88       1.0  0.39159  0.90201  0.20316  1.0000
  N   N8        1.0  0.28554  0.84674  0.31777  1.0000
  H   H89       1.0  0.28562  0.82985  0.30105  1.0000
  N   N9        1.0  0.34300  0.94245  0.33230  1.0000
  H   H90       1.0  0.32601  0.94213  0.35035  1.0000
  C   C91       1.0  0.88754  0.53931  0.26397  1.0000
  C   C92       1.0  0.90943  0.56308  0.29216  1.0000
  C   C93       1.0  0.90639  0.58393  0.32418  1.0000
  C   C94       1.0  0.88104  0.58070  0.32617  1.0000
  C   C95       1.0  0.85929  0.55829  0.28983  1.0000
  C   C96       1.0  0.86275  0.53746  0.26008  1.0000
  H   H91       1.0  0.87866  0.59545  0.35169  1.0000
  H   H92       1.0  0.84686  0.52025  0.23995  1.0000
  H   H93       1.0  0.92758  0.56479  0.29216  1.0000
  N   N10       1.0  0.88923  0.51647  0.24811  1.0000
  H   H94       1.0  0.90624  0.52164  0.21400  1.0000
  N   N11       1.0  0.83430  0.55635  0.29236  1.0000
  H   H95       1.0  0.81958  0.53846  0.27044  1.0000
  N   N12       1.0  0.92849  0.60852  0.34583  1.0000
  H   H96       1.0  0.92409  0.62301  0.35937  1.0000
  C   C97       1.0  0.47912  0.36586  0.25983  1.0000
  C   C98       1.0  0.45676  0.36758  0.28189  1.0000
  C   C99       1.0  0.43423  0.34617  0.31893  1.0000
  C   C100      1.0  0.43401  0.32227  0.32938  1.0000
  C   C101      1.0  0.45509  0.31918  0.29970  1.0000
  C   C102      1.0  0.47782  0.34139  0.26639  1.0000
  H   H97       1.0  0.41795  0.30675  0.35739  1.0000
  H   H98       1.0  0.49410  0.34016  0.25133  1.0000
  H   H99       1.0  0.45765  0.38524  0.27472  1.0000
  N   N13       1.0  0.50347  0.38877  0.24203  1.0000
  H   H100      1.0  0.49989  0.40059  0.20124  1.0000
  N   N14       1.0  0.45421  0.29489  0.31289  1.0000
  H   H101      1.0  0.47148  0.29586  0.29431  1.0000
  N   N15       1.0  0.41170  0.34832  0.33706  1.0000
  H   H102      1.0  0.39568  0.33090  0.35611  1.0000
  C   C103      1.0  0.64725  0.12483  0.26628  1.0000
  C   C104      1.0  0.64985  0.10350  0.29626  1.0000
  C   C105      1.0  0.67412  0.10735  0.32766  1.0000
  C   C106      1.0  0.69588  0.13295  0.32676  1.0000
  C   C107      1.0  0.69450  0.15409  0.28837  1.0000
  C   C108      1.0  0.66982  0.14982  0.25958  1.0000
  H   H103      1.0  0.71332  0.13597  0.35159  1.0000
  H   H104      1.0  0.66800  0.16529  0.23792  1.0000
  H   H105      1.0  0.63365  0.08520  0.29824  1.0000
  N   N16       1.0  0.62240  0.12241  0.25019  1.0000
  H   H106      1.0  0.61090  0.10528  0.21625  1.0000
  N   N17       1.0  0.71724  0.17933  0.28823  1.0000
  H   H107      1.0  0.71359  0.19365  0.26534  1.0000
  N   N18       1.0  0.67741  0.08587  0.35215  1.0000
  H   H108      1.0  0.69637  0.09112  0.36850  1.0000
  C   C109      1.0  0.47300  0.12514  0.39047  1.0000
  C   C110      1.0  0.44912  0.10382  0.36010  1.0000
  C   C111      1.0  0.42868  0.10765  0.32862  1.0000
  C   C112      1.0  0.43247  0.13323  0.32995  1.0000
  C   C113      1.0  0.45492  0.15434  0.36878  1.0000
  C   C114      1.0  0.47534  0.15009  0.39756  1.0000
  H   H109      1.0  0.41801  0.13626  0.30546  1.0000
  H   H110      1.0  0.49257  0.16556  0.41971  1.0000
  H   H111      1.0  0.44706  0.08553  0.35790  1.0000
  N   N19       1.0  0.49542  0.12272  0.40691  1.0000
  H   H112      1.0  0.48975  0.10562  0.44112  1.0000
  N   N20       1.0  0.45711  0.17945  0.37029  1.0000
  H   H113      1.0  0.47511  0.19382  0.39266  1.0000
  N   N21       1.0  0.40395  0.08618  0.30357  1.0000
  H   H114      1.0  0.39038  0.09150  0.28607  1.0000
  C   C115      1.0  0.64919  0.54268  0.39643  1.0000
  C   C116      1.0  0.65164  0.56644  0.36533  1.0000
  C   C117      1.0  0.67585  0.58685  0.33341  1.0000
  C   C118      1.0  0.69767  0.58310  0.33469  1.0000
  C   C119      1.0  0.69640  0.56069  0.37366  1.0000
  C   C120      1.0  0.67182  0.54037  0.40327  1.0000
  H   H115      1.0  0.71504  0.59742  0.30909  1.0000
  H   H116      1.0  0.67003  0.52305  0.42460  1.0000
  H   H117      1.0  0.63532  0.56834  0.36237  1.0000
  N   N22       1.0  0.62444  0.51993  0.40987  1.0000
  H   H118      1.0  0.61211  0.52510  0.44061  1.0000
  N   N23       1.0  0.71903  0.55802  0.37280  1.0000
  H   H119      1.0  0.71539  0.54010  0.39616  1.0000
  N   N24       1.0  0.67896  0.61140  0.30667  1.0000
  H   H120      1.0  0.69778  0.62484  0.28788  1.0000
  C   C121      1.0  0.88744  0.36530  0.39520  1.0000
  C   C122      1.0  0.90928  0.36334  0.36708  1.0000
  C   C123      1.0  0.90617  0.33942  0.33511  1.0000
  C   C124      1.0  0.88077  0.31736  0.33291  1.0000
  C   C125      1.0  0.85904  0.31810  0.36909  1.0000
  C   C126      1.0  0.86260  0.34242  0.39895  1.0000
  H   H121      1.0  0.87833  0.30023  0.30719  1.0000
  H   H122      1.0  0.84673  0.34382  0.41880  1.0000
  H   H123      1.0  0.92746  0.37974  0.36713  1.0000
  N   N25       1.0  0.88920  0.38988  0.41097  1.0000
  H   H124      1.0  0.90622  0.40169  0.44505  1.0000
  N   N26       1.0  0.83399  0.29515  0.36603  1.0000
  H   H125      1.0  0.81934  0.29840  0.38809  1.0000
  N   N27       1.0  0.92821  0.33684  0.31331  1.0000
  H   H126      1.0  0.92373  0.31794  0.29970  1.0000
  C   C127      1.0  0.52951  0.88903  0.39942  1.0000
  C   C128      1.0  0.55117  0.91378  0.37888  1.0000
  C   C129      1.0  0.57432  0.91632  0.34182  1.0000
  C   C130      1.0  0.57585  0.89338  0.32926  1.0000
  C   C131      1.0  0.55534  0.86853  0.35630  1.0000
  C   C132      1.0  0.53202  0.86660  0.39001  1.0000
  H   H127      1.0  0.59240  0.89496  0.30151  1.0000
  H   H128      1.0  0.51621  0.84860  0.40369  1.0000
  H   H129      1.0  0.54934  0.92999  0.38724  1.0000
  N   N28       1.0  0.50450  0.88612  0.41650  1.0000
  H   H130      1.0  0.50714  0.90156  0.45539  1.0000
  N   N29       1.0  0.55756  0.84590  0.34147  1.0000
  H   H131      1.0  0.54051  0.82906  0.35801  1.0000
  N   N30       1.0  0.59608  0.94166  0.32568  1.0000
  H   H132      1.0  0.61271  0.94128  0.30742  1.0000
  C   C133      1.0  0.35665  0.47938  0.39477  1.0000
  C   C134      1.0  0.35510  0.45584  0.36562  1.0000
  C   C135      1.0  0.33131  0.43484  0.33359  1.0000
  C   C136      1.0  0.30897  0.43772  0.33247  1.0000
  C   C137      1.0  0.30936  0.45991  0.36955  1.0000
  C   C138      1.0  0.33354  0.48089  0.39933  1.0000
  H   H133      1.0  0.29187  0.42286  0.30716  1.0000
  H   H134      1.0  0.33463  0.49795  0.42003  1.0000
  H   H135      1.0  0.37172  0.45443  0.36478  1.0000
  N   N31       1.0  0.38101  0.50250  0.40958  1.0000
  H   H136      1.0  0.39344  0.49769  0.44148  1.0000
  N   N32       1.0  0.28604  0.46136  0.36850  1.0000
  H   H137      1.0  0.28903  0.47921  0.39018  1.0000
  N   N33       1.0  0.32911  0.41043  0.31086  1.0000
  H   H138      1.0  0.31032  0.39592  0.29634  1.0000
  C   C139      1.0  0.12418  0.65779  0.39944  1.0000
  C   C140      1.0  0.09990  0.65547  0.37651  1.0000
  C   C141      1.0  0.09831  0.67660  0.33916  1.0000
  C   C142      1.0  0.12171  0.70082  0.32948  1.0000
  C   C143      1.0  0.14601  0.70443  0.35992  1.0000
  C   C144      1.0  0.14704  0.68251  0.39329  1.0000
  H   H139      1.0  0.12086  0.71621  0.30176  1.0000
  H   H140      1.0  0.16471  0.68418  0.40905  1.0000
  H   H141      1.0  0.08337  0.63758  0.38306  1.0000
  N   N34       1.0  0.12625  0.63519  0.41622  1.0000
  H   H142      1.0  0.11068  0.62273  0.45529  1.0000
  N   N35       1.0  0.16901  0.72920  0.34898  1.0000
  H   H143      1.0  0.18556  0.72859  0.36681  1.0000
  N   N36       1.0  0.07344  0.67388  0.32026  1.0000
  H   H144      1.0  0.07447  0.69110  0.30076  1.0000
  C   C145      1.0  0.19578  0.43493  0.39695  1.0000
  C   C146      1.0  0.21866  0.43673  0.43364  1.0000
  C   C147      1.0  0.23840  0.43765  0.37762  1.0000
  O   O37       1.0  0.22060  0.43627  0.52371  1.0000
  H   H145      1.0  0.22864  0.45460  0.54353  1.0000
  O   O38       1.0  0.17647  0.43254  0.45292  1.0000
  H   H146      1.0  0.18254  0.44993  0.47922  1.0000
  C   C148      1.0  0.26287  0.44004  0.41518  1.0000
  H   H147      1.0  0.26130  0.42090  0.40642  1.0000
  H   H148      1.0  0.26499  0.44415  0.48640  1.0000
  C   C149      1.0  0.58136  0.78114  0.39114  1.0000
  C   C150      1.0  0.58133  0.80395  0.41989  1.0000
  C   C151      1.0  0.58117  0.82180  0.35727  1.0000
  O   O39       1.0  0.58247  0.80873  0.50878  1.0000
  H   H149      1.0  0.56422  0.79982  0.52989  1.0000
  O   O40       1.0  0.58303  0.76516  0.45319  1.0000
  H   H150      1.0  0.56561  0.75512  0.48070  1.0000
  C   C152      1.0  0.57990  0.84537  0.38578  1.0000
  H   H151      1.0  0.59852  0.86246  0.36714  1.0000
  H   H152      1.0  0.57783  0.84616  0.45771  1.0000
  C   C153      1.0  0.23259  0.81827  0.39649  1.0000
  C   C154      1.0  0.21039  0.79512  0.42662  1.0000
  C   C155      1.0  0.19237  0.77678  0.36508  1.0000
  O   O41       1.0  0.20631  0.79146  0.51582  1.0000
  H   H153      1.0  0.21576  0.78252  0.53552  1.0000
  O   O42       1.0  0.24876  0.83619  0.45759  1.0000
  H   H154      1.0  0.25932  0.82920  0.48378  1.0000
  C   C156      1.0  0.16936  0.75175  0.39501  1.0000
  H   H155      1.0  0.15194  0.75300  0.37893  1.0000
  H   H156      1.0  0.16920  0.74882  0.46676  1.0000
  C   C157      1.0  0.80847  0.58089  0.38457  1.0000
  C   C158      1.0  0.78676  0.58054  0.42561  1.0000
  C   C159      1.0  0.76658  0.58018  0.37350  1.0000
  O   O43       1.0  0.78645  0.58199  0.51589  1.0000
  H   H157      1.0  0.77817  0.56384  0.53768  1.0000
  O   O44       1.0  0.82845  0.58323  0.43690  1.0000
  H   H158      1.0  0.82230  0.56607  0.46522  1.0000
  C   C160      1.0  0.74322  0.57913  0.41558  1.0000
  H   H159      1.0  0.74540  0.59853  0.40680  1.0000
  H   H160      1.0  0.74205  0.57549  0.48704  1.0000
  C   C161      1.0  0.43093  0.24371  0.40134  1.0000
  C   C162      1.0  0.43285  0.22262  0.43736  1.0000
  C   C163      1.0  0.43383  0.20392  0.38083  1.0000
  O   O45       1.0  0.43234  0.22002  0.52736  1.0000
  H   H161      1.0  0.45065  0.23038  0.54737  1.0000
  O   O46       1.0  0.42839  0.26043  0.45784  1.0000
  H   H162      1.0  0.44578  0.27183  0.48404  1.0000
  C   C164      1.0  0.43610  0.18169  0.41781  1.0000
  H   H163      1.0  0.41684  0.16425  0.40980  1.0000
  H   H164      1.0  0.44044  0.18369  0.48889  1.0000
  C   C165      1.0  0.76780  0.20557  0.37943  1.0000
  C   C166      1.0  0.78918  0.22736  0.42007  1.0000
  C   C167      1.0  0.80885  0.24754  0.36758  1.0000
  O   O47       1.0  0.79111  0.22775  0.51031  1.0000
  H   H165      1.0  0.78117  0.23594  0.53236  1.0000
  O   O48       1.0  0.75030  0.18563  0.43217  1.0000
  H   H166      1.0  0.73928  0.19174  0.46062  1.0000
  C   C168      1.0  0.83110  0.27107  0.40919  1.0000
  H   H167      1.0  0.84838  0.26901  0.40036  1.0000
  H   H168      1.0  0.82865  0.27231  0.48061  1.0000
  C   C169      1.0  0.12636  0.54793  0.32301  1.0000
  C   C170      1.0  0.12711  0.58365  0.41150  1.0000
  C   C171      1.0  0.12663  0.55946  0.40614  1.0000
  O   O49       1.0  0.12920  0.59422  0.49360  1.0000
  O   O50       1.0  0.12740  0.54781  0.48358  1.0000
  H   H169      1.0  0.11178  0.58438  0.52141  1.0000
  H   H170      1.0  0.10911  0.53692  0.50306  1.0000
  C   C172      1.0  0.12530  0.52204  0.32435  1.0000
  H   H171      1.0  0.10779  0.50876  0.36268  1.0000
  H   H172      1.0  0.14247  0.52494  0.36193  1.0000
  C   C173      1.0  0.46433  0.59359  0.32400  1.0000
  C   C174      1.0  0.43007  0.55612  0.40866  1.0000
  C   C175      1.0  0.45320  0.58086  0.40582  1.0000
  O   O51       1.0  0.41983  0.54609  0.48993  1.0000
  O   O52       1.0  0.46420  0.59279  0.48458  1.0000
  H   H173      1.0  0.43029  0.53873  0.51420  1.0000
  H   H174      1.0  0.47588  0.58618  0.50267  1.0000
  C   C176      1.0  0.48947  0.61923  0.32807  1.0000
  H   H175      1.0  0.50315  0.61545  0.36577  1.0000
  H   H176      1.0  0.48555  0.63252  0.36750  1.0000
  C   C177      1.0  0.41639  0.88470  0.32441  1.0000
  C   C178      1.0  0.45155  0.88416  0.41244  1.0000
  C   C179      1.0  0.42775  0.88447  0.40737  1.0000
  O   O53       1.0  0.46013  0.88211  0.49440  1.0000
  O   O54       1.0  0.41538  0.88367  0.48497  1.0000
  H   H177      1.0  0.46747  0.89945  0.52260  1.0000
  H   H178      1.0  0.42278  0.90196  0.50455  1.0000
  C   C180      1.0  0.39167  0.88597  0.32621  1.0000
  H   H179      1.0  0.39610  0.90347  0.36494  1.0000
  H   H180      1.0  0.37732  0.86882  0.36366  1.0000
  C   C181      1.0  0.88805  0.47702  0.32762  1.0000
  C   C182      1.0  0.88766  0.44069  0.41136  1.0000
  C   C183      1.0  0.88782  0.46477  0.40915  1.0000
  O   O55       1.0  0.88560  0.42941  0.49211  1.0000
  O   O56       1.0  0.88660  0.47554  0.48803  1.0000
  H   H181      1.0  0.90309  0.43886  0.51958  1.0000
  H   H182      1.0  0.90481  0.48642  0.50845  1.0000
  C   C184      1.0  0.88845  0.50261  0.33196  1.0000
  H   H183      1.0  0.90547  0.51595  0.37212  1.0000
  H   H184      1.0  0.87079  0.49880  0.36841  1.0000
  C   C185      1.0  0.54149  0.42885  0.32214  1.0000
  C   C186      1.0  0.57547  0.46632  0.40759  1.0000
  C   C187      1.0  0.55241  0.44151  0.40423  1.0000
  O   O57       1.0  0.58554  0.47628  0.48909  1.0000
  O   O58       1.0  0.54132  0.42945  0.48272  1.0000
  H   H185      1.0  0.57506  0.48368  0.51293  1.0000
  H   H186      1.0  0.52952  0.43593  0.50062  1.0000
  C   C188      1.0  0.51653  0.40304  0.32551  1.0000
  H   H187      1.0  0.50258  0.40649  0.36295  1.0000
  H   H188      1.0  0.52060  0.38984  0.36487  1.0000
  C   C189      1.0  0.58376  0.12329  0.32798  1.0000
  C   C190      1.0  0.54752  0.12366  0.40989  1.0000
  C   C191      1.0  0.57144  0.12347  0.40888  1.0000
  O   O59       1.0  0.53799  0.12564  0.49013  1.0000
  O   O60       1.0  0.58314  0.12464  0.48832  1.0000
  H   H189      1.0  0.52972  0.10808  0.51716  1.0000
  H   H190      1.0  0.57576  0.10642  0.50866  1.0000
  C   C192      1.0  0.60903  0.12304  0.33350  1.0000
  H   H191      1.0  0.60535  0.10603  0.37371  1.0000
  H   H192      1.0  0.62268  0.14071  0.37030  1.0000
  C   C193      1.0  0.98089  0.37051  0.38417  1.0000
  C   C194      1.0  0.00663  0.38608  0.41727  1.0000
  C   C195      1.0  0.02725  0.40341  0.36071  1.0000
  O   O61       1.0  0.01079  0.38517  0.50596  1.0000
  H   H193      1.0  0.01448  0.37077  0.51427  1.0000
  O   O62       1.0  0.96202  0.35571  0.44462  1.0000
  H   H194      1.0  0.96238  0.33926  0.45089  1.0000
  C   C196      1.0  0.05438  0.42038  0.39515  1.0000
  H   H195      1.0  0.05687  0.41574  0.46356  1.0000
  H   H196      1.0  0.05795  0.44042  0.39595  1.0000
  C   C197      1.0  0.64454  0.62942  0.37969  1.0000
  C   C198      1.0  0.62807  0.63835  0.41419  1.0000
  C   C199      1.0  0.60888  0.63922  0.36002  1.0000
  O   O63       1.0  0.63039  0.64512  0.50168  1.0000
  H   H197      1.0  0.64385  0.66379  0.50480  1.0000
  O   O64       1.0  0.66177  0.62840  0.43753  1.0000
  H   H198      1.0  0.67757  0.64588  0.43673  1.0000
  C   C200      1.0  0.59159  0.64897  0.39453  1.0000
  H   H199      1.0  0.59606  0.65604  0.46305  1.0000
  H   H200      1.0  0.57161  0.63238  0.39473  1.0000
  C   C201      1.0  0.38485  0.03348  0.37595  1.0000
  C   C202      1.0  0.37570  0.00804  0.41040  1.0000
  C   C203      1.0  0.37495  0.98800  0.35648  1.0000
  O   O65       1.0  0.36855  0.00352  0.49757  1.0000
  H   H201      1.0  0.34987  0.99829  0.49968  1.0000
  O   O66       1.0  0.38564  0.05170  0.43347  1.0000
  H   H202      1.0  0.36821  0.05013  0.43128  1.0000
  C   C204      1.0  0.36487  0.96087  0.39067  1.0000
  H   H203      1.0  0.35781  0.95829  0.45924  1.0000
  H   H204      1.0  0.38124  0.95717  0.39068  1.0000
  C   C205      1.0  0.02189  0.63430  0.38789  1.0000
  C   C206      1.0  0.99632  0.62445  0.42163  1.0000
  C   C207      1.0  0.97548  0.62093  0.36563  1.0000
  O   O67       1.0  0.99199  0.61748  0.50907  1.0000
  H   H205      1.0  0.99580  0.63342  0.54205  1.0000
  O   O68       1.0  0.04069  0.63591  0.44448  1.0000
  H   H206      1.0  0.04630  0.65176  0.48062  1.0000
  C   C208      1.0  0.94895  0.61010  0.40697  1.0000
  H   H207      1.0  0.95054  0.62268  0.46299  1.0000
  H   H208      1.0  0.94321  0.59080  0.43470  1.0000
  C   C209      1.0  0.36338  0.39224  0.38270  1.0000
  C   C210      1.0  0.37924  0.38247  0.41622  1.0000
  C   C211      1.0  0.39701  0.37972  0.36018  1.0000
  O   O69       1.0  0.37816  0.37724  0.50482  1.0000
  H   H209      1.0  0.36398  0.35901  0.51249  1.0000
  O   O70       1.0  0.34811  0.39577  0.44266  1.0000
  H   H210      1.0  0.33183  0.37877  0.44819  1.0000
  C   C212      1.0  0.41428  0.36995  0.39495  1.0000
  H   H211      1.0  0.40965  0.36279  0.46332  1.0000
  H   H212      1.0  0.43420  0.38664  0.39594  1.0000
  C   C213      1.0  0.60696  0.99328  0.39072  1.0000
  C   C214      1.0  0.62323  0.01866  0.42509  1.0000
  C   C215      1.0  0.64206  0.03903  0.37077  1.0000
  O   O71       1.0  0.61978  0.02327  0.51147  1.0000
  H   H213      1.0  0.63110  0.01894  0.54711  1.0000
  O   O72       1.0  0.58840  0.97491  0.44525  1.0000
  H   H214      1.0  0.59749  0.96862  0.48432  1.0000
  C   C216      1.0  0.65853  0.06529  0.41303  1.0000
  H   H215      1.0  0.66945  0.06291  0.46763  1.0000
  H   H216      1.0  0.64562  0.07156  0.44296  1.0000
