data_image0
_chemical_formula_structural       C4NH2NH2C4NH2NH2C4NH2NH2C2NH2NH2C2NH2NH2C2NH2NH2C2NH2NH2C2NH2NH2C2NH2NH2NC18H12NC18H12NC18H12NC18H12NC18H12NC18H12C2NH2NH2C2NH2NH2C2NH2NH2C4NH2NH2C4NH2NH2C4NH2NH2C4NH2NH2C4NH2NH2C4NH2NH2
_chemical_formula_sum              "C162 N42 H144"
_cell_length_a       52.7509
_cell_length_b       52.751
_cell_length_c       14.8831
_cell_angle_alpha    90
_cell_angle_beta     90
_cell_angle_gamma    120

_space_group_name_H-M_alt    "P 1"
_space_group_IT_number       1

loop_
  _space_group_symop_operation_xyz
  'x, y, z'

loop_
  _atom_site_type_symbol
  _atom_site_label
  _atom_site_symmetry_multiplicity
  _atom_site_fract_x
  _atom_site_fract_y
  _atom_site_fract_z
  _atom_site_occupancy
  C   C1        1.0  0.97438  0.48764  0.33086  1.0000
  C   C2        1.0  0.99048  0.49368  0.24877  1.0000
  C   C3        1.0  0.02124  0.51409  0.24870  1.0000
  C   C4        1.0  0.03734  0.52019  0.33084  1.0000
  N   N1        1.0  0.03466  0.52818  0.17069  1.0000
  H   H1        1.0  0.02325  0.52717  0.11823  1.0000
  H   H2        1.0  0.05450  0.54465  0.17108  1.0000
  N   N2        1.0  0.97705  0.47946  0.17094  1.0000
  H   H3        1.0  0.95712  0.46316  0.17076  1.0000
  H   H4        1.0  0.98835  0.48057  0.11807  1.0000
  C   C5        1.0  0.52059  0.48708  0.35350  1.0000
  C   C6        1.0  0.51542  0.49790  0.27141  1.0000
  C   C7        1.0  0.49633  0.50989  0.27137  1.0000
  C   C8        1.0  0.49116  0.52074  0.35343  1.0000
  N   N3        1.0  0.48254  0.50993  0.19349  1.0000
  H   H5        1.0  0.48284  0.49911  0.14115  1.0000
  H   H6        1.0  0.46677  0.51436  0.19396  1.0000
  N   N4        1.0  0.52923  0.49788  0.19358  1.0000
  H   H7        1.0  0.54492  0.49333  0.19387  1.0000
  H   H8        1.0  0.52884  0.50852  0.14087  1.0000
  C   C9        1.0  0.52138  0.03546  0.33637  1.0000
  C   C10       1.0  0.51543  0.01947  0.25402  1.0000
  C   C11       1.0  0.49623  0.98839  0.25405  1.0000
  C   C12       1.0  0.49038  0.97240  0.33635  1.0000
  N   N5        1.0  0.48283  0.97437  0.17594  1.0000
  H   H9        1.0  0.48337  0.98518  0.12254  1.0000
  H   H10       1.0  0.46758  0.95394  0.17537  1.0000
  N   N6        1.0  0.52875  0.03351  0.17584  1.0000
  H   H11       1.0  0.54399  0.05393  0.17512  1.0000
  H   H12       1.0  0.52815  0.02266  0.12243  1.0000
  C   C13       1.0  0.27277  0.56567  0.25733  1.0000
  C   C14       1.0  0.29663  0.56022  0.25057  1.0000
  N   N7        1.0  0.26614  0.57742  0.18526  1.0000
  H   H13       1.0  0.25303  0.58523  0.19101  1.0000
  H   H14       1.0  0.27883  0.58445  0.13293  1.0000
  N   N8        1.0  0.30433  0.55439  0.16857  1.0000
  H   H15       1.0  0.31808  0.54731  0.16388  1.0000
  H   H16       1.0  0.29168  0.55031  0.11673  1.0000
  C   C15       1.0  0.43034  0.70259  0.35844  1.0000
  C   C16       1.0  0.42862  0.72883  0.36082  1.0000
  N   N9        1.0  0.41109  0.67924  0.30695  1.0000
  H   H17       1.0  0.41144  0.66107  0.30424  1.0000
  H   H18       1.0  0.39907  0.68108  0.26118  1.0000
  N   N10       1.0  0.40472  0.72925  0.32610  1.0000
  H   H19       1.0  0.40248  0.74639  0.32921  1.0000
  H   H20       1.0  0.38691  0.71150  0.30996  1.0000
  C   C17       1.0  0.28927  0.74990  0.22688  1.0000
  C   C18       1.0  0.26107  0.72389  0.22868  1.0000
  N   N11       1.0  0.29540  0.77154  0.16524  1.0000
  H   H21       1.0  0.31403  0.78961  0.16334  1.0000
  H   H22       1.0  0.28305  0.76843  0.11350  1.0000
  N   N12       1.0  0.23809  0.72214  0.18040  1.0000
  H   H23       1.0  0.21857  0.70519  0.18307  1.0000
  H   H24       1.0  0.23894  0.73906  0.15204  1.0000
  C   C19       1.0  0.73905  0.44227  0.25755  1.0000
  C   C20       1.0  0.71520  0.44773  0.25081  1.0000
  N   N13       1.0  0.74575  0.43063  0.18533  1.0000
  H   H25       1.0  0.75886  0.42282  0.19102  1.0000
  H   H26       1.0  0.73311  0.42367  0.13289  1.0000
  N   N14       1.0  0.70762  0.45371  0.16888  1.0000
  H   H27       1.0  0.69379  0.46071  0.16417  1.0000
  H   H28       1.0  0.72011  0.45768  0.11672  1.0000
  C   C21       1.0  0.58151  0.30527  0.35857  1.0000
  C   C22       1.0  0.58323  0.27904  0.36098  1.0000
  N   N15       1.0  0.60068  0.32858  0.30676  1.0000
  H   H29       1.0  0.60043  0.34680  0.30423  1.0000
  H   H30       1.0  0.61277  0.32678  0.26111  1.0000
  N   N16       1.0  0.60708  0.27857  0.32592  1.0000
  H   H31       1.0  0.60932  0.26145  0.32947  1.0000
  H   H32       1.0  0.62489  0.29637  0.31012  1.0000
  C   C23       1.0  0.72249  0.25792  0.22694  1.0000
  C   C24       1.0  0.75070  0.28391  0.22873  1.0000
  N   N17       1.0  0.71639  0.23623  0.16550  1.0000
  H   H33       1.0  0.69770  0.21823  0.16345  1.0000
  H   H34       1.0  0.72871  0.23941  0.11363  1.0000
  N   N18       1.0  0.77369  0.28561  0.18069  1.0000
  H   H35       1.0  0.79321  0.30255  0.18334  1.0000
  H   H36       1.0  0.77284  0.26865  0.15257  1.0000
  N   N19       1.0  0.16395  0.58423  0.32116  1.0000
  C   C25       1.0  0.18028  0.61478  0.29942  1.0000
  C   C26       1.0  0.13247  0.56814  0.32474  1.0000
  C   C27       1.0  0.18208  0.57171  0.34058  1.0000
  C   C28       1.0  0.20307  0.58348  0.41046  1.0000
  C   C29       1.0  0.22755  0.57948  0.41118  1.0000
  C   C30       1.0  0.23072  0.56144  0.34690  1.0000
  C   C31       1.0  0.20769  0.54663  0.28434  1.0000
  C   C32       1.0  0.18471  0.55286  0.27849  1.0000
  C   C33       1.0  0.18670  0.63589  0.36748  1.0000
  C   C34       1.0  0.21037  0.66466  0.35919  1.0000
  C   C35       1.0  0.22889  0.67303  0.28320  1.0000
  C   C36       1.0  0.22162  0.65257  0.21261  1.0000
  C   C37       1.0  0.19751  0.62395  0.22040  1.0000
  C   C38       1.0  0.11659  0.57639  0.38292  1.0000
  C   C39       1.0  0.08568  0.56128  0.38372  1.0000
  C   C40       1.0  0.06908  0.53609  0.32996  1.0000
  C   C41       1.0  0.08498  0.52731  0.27376  1.0000
  C   C42       1.0  0.11579  0.54351  0.26918  1.0000
  H   H37       1.0  0.21581  0.67849  0.41307  1.0000
  H   H38       1.0  0.17645  0.62962  0.42830  1.0000
  H   H39       1.0  0.19459  0.60886  0.17238  1.0000
  H   H40       1.0  0.23519  0.65762  0.15823  1.0000
  H   H41       1.0  0.20273  0.59815  0.45460  1.0000
  H   H42       1.0  0.24387  0.59113  0.45663  1.0000
  H   H43       1.0  0.12740  0.59397  0.42447  1.0000
  H   H44       1.0  0.07526  0.56866  0.42511  1.0000
  H   H45       1.0  0.07408  0.50933  0.23330  1.0000
  H   H46       1.0  0.12582  0.53690  0.22419  1.0000
  H   H47       1.0  0.17148  0.54537  0.22355  1.0000
  H   H48       1.0  0.20925  0.53374  0.23572  1.0000
  N   N20       1.0  0.42981  0.58611  0.36080  1.0000
  C   C43       1.0  0.39954  0.57404  0.33573  1.0000
  C   C44       1.0  0.44511  0.56994  0.35835  1.0000
  C   C45       1.0  0.44385  0.61614  0.38890  1.0000
  C   C46       1.0  0.43308  0.62384  0.46511  1.0000
  C   C47       1.0  0.43743  0.65235  0.47514  1.0000
  C   C48       1.0  0.45334  0.67419  0.41020  1.0000
  C   C49       1.0  0.46630  0.66731  0.33818  1.0000
  C   C50       1.0  0.46138  0.63865  0.32741  1.0000
  C   C51       1.0  0.37662  0.55130  0.38565  1.0000
  C   C52       1.0  0.34743  0.54497  0.37718  1.0000
  C   C53       1.0  0.34033  0.56294  0.32469  1.0000
  C   C54       1.0  0.36295  0.58472  0.27119  1.0000
  C   C55       1.0  0.39159  0.58918  0.27342  1.0000
  C   C56       1.0  0.43802  0.54651  0.41825  1.0000
  C   C57       1.0  0.45214  0.52982  0.41393  1.0000
  C   C58       1.0  0.47579  0.53718  0.35434  1.0000
  C   C59       1.0  0.48379  0.56155  0.29714  1.0000
  C   C60       1.0  0.46825  0.57694  0.29726  1.0000
  H   H49       1.0  0.33184  0.52900  0.41723  1.0000
  H   H50       1.0  0.38101  0.54032  0.43365  1.0000
  H   H51       1.0  0.40740  0.60625  0.23732  1.0000
  H   H52       1.0  0.35910  0.59857  0.23294  1.0000
  H   H53       1.0  0.41892  0.60781  0.50787  1.0000
  H   H54       1.0  0.42686  0.65636  0.52604  1.0000
  H   H55       1.0  0.42257  0.54138  0.46670  1.0000
  H   H56       1.0  0.44551  0.51258  0.45728  1.0000
  H   H57       1.0  0.50088  0.56803  0.25330  1.0000
  H   H58       1.0  0.47427  0.59362  0.25247  1.0000
  H   H59       1.0  0.46753  0.63361  0.26810  1.0000
  H   H60       1.0  0.47675  0.68224  0.28797  1.0000
  N   N21       1.0  0.42743  0.84577  0.34104  1.0000
  C   C61       1.0  0.44106  0.82923  0.36660  1.0000
  C   C62       1.0  0.44293  0.87723  0.33913  1.0000
  C   C63       1.0  0.39723  0.82797  0.31648  1.0000
  C   C64       1.0  0.38945  0.80966  0.23990  1.0000
  C   C65       1.0  0.36092  0.78564  0.22960  1.0000
  C   C66       1.0  0.33884  0.78003  0.29337  1.0000
  C   C67       1.0  0.34591  0.79977  0.36594  1.0000
  C   C68       1.0  0.37486  0.82280  0.37859  1.0000
  C   C69       1.0  0.45532  0.82144  0.30084  1.0000
  C   C70       1.0  0.46052  0.79802  0.31489  1.0000
  C   C71       1.0  0.45152  0.78160  0.39533  1.0000
  C   C72       1.0  0.43859  0.79021  0.46314  1.0000
  C   C73       1.0  0.43340  0.81368  0.44880  1.0000
  C   C74       1.0  0.46837  0.89328  0.28615  1.0000
  C   C75       1.0  0.48415  0.92421  0.28641  1.0000
  C   C76       1.0  0.47450  0.94062  0.33672  1.0000
  C   C77       1.0  0.44865  0.92453  0.38812  1.0000
  C   C78       1.0  0.43365  0.89363  0.39081  1.0000
  H   H61       1.0  0.46891  0.79163  0.26329  1.0000
  H   H62       1.0  0.45936  0.83084  0.23858  1.0000
  H   H63       1.0  0.42163  0.81770  0.49553  1.0000
  H   H64       1.0  0.43083  0.77806  0.52060  1.0000
  H   H65       1.0  0.40523  0.81201  0.19539  1.0000
  H   H66       1.0  0.35671  0.77146  0.17734  1.0000
  H   H67       1.0  0.47602  0.88251  0.24776  1.0000
  H   H68       1.0  0.50277  0.93480  0.24845  1.0000
  H   H69       1.0  0.44076  0.93533  0.42568  1.0000
  H   H70       1.0  0.41563  0.88321  0.43084  1.0000
  H   H71       1.0  0.37991  0.83409  0.43772  1.0000
  H   H72       1.0  0.33077  0.79566  0.41516  1.0000
  N   N22       1.0  0.84777  0.42356  0.32132  1.0000
  C   C79       1.0  0.83147  0.39303  0.29918  1.0000
  C   C80       1.0  0.87926  0.43966  0.32484  1.0000
  C   C81       1.0  0.82959  0.43603  0.34076  1.0000
  C   C82       1.0  0.80854  0.42412  0.41038  1.0000
  C   C83       1.0  0.78409  0.42818  0.41126  1.0000
  C   C84       1.0  0.78101  0.44636  0.34728  1.0000
  C   C85       1.0  0.80411  0.46128  0.28499  1.0000
  C   C86       1.0  0.82708  0.45504  0.27903  1.0000
  C   C87       1.0  0.82509  0.37193  0.36726  1.0000
  C   C88       1.0  0.80138  0.34318  0.35899  1.0000
  C   C89       1.0  0.78288  0.33481  0.28296  1.0000
  C   C90       1.0  0.79016  0.35526  0.21235  1.0000
  C   C91       1.0  0.81429  0.38388  0.22010  1.0000
  C   C92       1.0  0.89514  0.43145  0.38310  1.0000
  C   C93       1.0  0.92606  0.44657  0.38386  1.0000
  C   C94       1.0  0.94264  0.47174  0.33002  1.0000
  C   C95       1.0  0.92673  0.48048  0.27374  1.0000
  C   C96       1.0  0.89592  0.46426  0.26916  1.0000
  H   H73       1.0  0.79596  0.32935  0.41286  1.0000
  H   H74       1.0  0.83532  0.37823  0.42810  1.0000
  H   H75       1.0  0.81718  0.39902  0.17227  1.0000
  H   H76       1.0  0.77658  0.35022  0.15800  1.0000
  H   H77       1.0  0.80892  0.40950  0.45460  1.0000
  H   H78       1.0  0.76777  0.41652  0.45669  1.0000
  H   H79       1.0  0.88434  0.41390  0.42476  1.0000
  H   H80       1.0  0.93649  0.43922  0.42534  1.0000
  H   H81       1.0  0.93763  0.49844  0.23316  1.0000
  H   H82       1.0  0.88588  0.47082  0.22406  1.0000
  H   H83       1.0  0.84031  0.46255  0.22407  1.0000
  H   H84       1.0  0.80258  0.47418  0.23638  1.0000
  N   N23       1.0  0.58201  0.42178  0.36104  1.0000
  C   C97       1.0  0.61227  0.43385  0.33588  1.0000
  C   C98       1.0  0.56669  0.43792  0.35859  1.0000
  C   C99       1.0  0.56805  0.39176  0.38933  1.0000
  C   C100      1.0  0.57882  0.38408  0.46554  1.0000
  C   C101      1.0  0.57454  0.35560  0.47538  1.0000
  C   C102      1.0  0.55860  0.33373  0.41053  1.0000
  C   C103      1.0  0.54563  0.34062  0.33851  1.0000
  C   C104      1.0  0.55056  0.36928  0.32772  1.0000
  C   C105      1.0  0.63516  0.45657  0.38594  1.0000
  C   C106      1.0  0.66436  0.46291  0.37743  1.0000
  C   C107      1.0  0.67146  0.44496  0.32480  1.0000
  C   C108      1.0  0.64886  0.42327  0.27102  1.0000
  C   C109      1.0  0.62023  0.41882  0.27318  1.0000
  C   C110      1.0  0.57379  0.46139  0.41836  1.0000
  C   C111      1.0  0.55965  0.47806  0.41401  1.0000
  C   C112      1.0  0.53597  0.47065  0.35448  1.0000
  C   C113      1.0  0.52795  0.44625  0.29744  1.0000
  C   C114      1.0  0.54352  0.43088  0.29758  1.0000
  H   H85       1.0  0.67990  0.47875  0.41793  1.0000
  H   H86       1.0  0.63075  0.46738  0.43443  1.0000
  H   H87       1.0  0.60439  0.40177  0.23709  1.0000
  H   H88       1.0  0.65272  0.40945  0.23263  1.0000
  H   H89       1.0  0.59295  0.40012  0.50835  1.0000
  H   H90       1.0  0.58503  0.35156  0.52648  1.0000
  H   H91       1.0  0.58928  0.46658  0.46672  1.0000
  H   H92       1.0  0.56630  0.49534  0.45722  1.0000
  H   H93       1.0  0.51086  0.43975  0.25360  1.0000
  H   H94       1.0  0.53749  0.41418  0.25288  1.0000
  H   H95       1.0  0.54442  0.37432  0.26840  1.0000
  H   H96       1.0  0.53520  0.32572  0.28823  1.0000
  N   N24       1.0  0.58435  0.16209  0.34119  1.0000
  C   C115      1.0  0.57074  0.17862  0.36709  1.0000
  C   C116      1.0  0.56885  0.13062  0.33924  1.0000
  C   C117      1.0  0.61452  0.17990  0.31651  1.0000
  C   C118      1.0  0.62230  0.19817  0.23985  1.0000
  C   C119      1.0  0.65082  0.22220  0.22955  1.0000
  C   C120      1.0  0.67290  0.22785  0.29336  1.0000
  C   C121      1.0  0.66583  0.20816  0.36607  1.0000
  C   C122      1.0  0.63691  0.18508  0.37866  1.0000
  C   C123      1.0  0.55644  0.18639  0.30140  1.0000
  C   C124      1.0  0.55128  0.20984  0.31545  1.0000
  C   C125      1.0  0.56034  0.22628  0.39584  1.0000
  C   C126      1.0  0.57324  0.21763  0.46367  1.0000
  C   C127      1.0  0.57839  0.19415  0.44930  1.0000
  C   C128      1.0  0.54334  0.11458  0.28654  1.0000
  C   C129      1.0  0.52757  0.08365  0.28673  1.0000
  C   C130      1.0  0.53727  0.06724  0.33676  1.0000
  C   C131      1.0  0.56319  0.08332  0.38791  1.0000
  C   C132      1.0  0.57818  0.11421  0.39063  1.0000
  H   H97       1.0  0.54302  0.21631  0.26373  1.0000
  H   H98       1.0  0.55252  0.17711  0.23900  1.0000
  H   H99       1.0  0.59022  0.19016  0.49588  1.0000
  H   H100      1.0  0.58106  0.22983  0.52103  1.0000
  H   H101      1.0  0.60649  0.19581  0.19544  1.0000
  H   H102      1.0  0.65502  0.23637  0.17723  1.0000
  H   H103      1.0  0.53565  0.12536  0.24835  1.0000
  H   H104      1.0  0.50890  0.07307  0.24899  1.0000
  H   H105      1.0  0.57112  0.07251  0.42523  1.0000
  H   H106      1.0  0.59627  0.12463  0.43043  1.0000
  H   H107      1.0  0.63183  0.17381  0.43784  1.0000
  H   H108      1.0  0.68099  0.21227  0.41520  1.0000
  C   C133      1.0  0.02138  0.50982  0.41313  1.0000
  C   C134      1.0  0.99034  0.49808  0.41310  1.0000
  N   N25       1.0  0.03529  0.51013  0.49116  1.0000
  H   H109      1.0  0.05552  0.51469  0.49109  1.0000
  H   H110      1.0  0.02419  0.49949  0.54378  1.0000
  N   N26       1.0  0.97645  0.49790  0.49099  1.0000
  H   H111      1.0  0.95615  0.49311  0.49136  1.0000
  H   H112      1.0  0.98743  0.50832  0.54405  1.0000
  C   C135      1.0  0.50114  0.51447  0.43533  1.0000
  C   C136      1.0  0.51061  0.49337  0.43537  1.0000
  N   N27       1.0  0.50278  0.52911  0.51300  1.0000
  H   H113      1.0  0.50008  0.54600  0.51294  1.0000
  H   H114      1.0  0.51289  0.52765  0.56557  1.0000
  N   N28       1.0  0.50900  0.47876  0.51309  1.0000
  H   H115      1.0  0.51171  0.46188  0.51309  1.0000
  H   H116      1.0  0.49889  0.48024  0.56565  1.0000
  C   C137      1.0  0.50032  0.98844  0.41862  1.0000
  C   C138      1.0  0.51154  0.01941  0.41868  1.0000
  N   N29       1.0  0.50015  0.97461  0.49668  1.0000
  H   H117      1.0  0.49552  0.95435  0.49723  1.0000
  H   H118      1.0  0.51035  0.98561  0.54993  1.0000
  N   N30       1.0  0.51182  0.03322  0.49691  1.0000
  H   H119      1.0  0.51633  0.05345  0.49716  1.0000
  H   H120      1.0  0.50162  0.02222  0.55013  1.0000
  C   C139      1.0  0.31194  0.56075  0.33033  1.0000
  C   C140      1.0  0.29932  0.56076  0.41547  1.0000
  C   C141      1.0  0.26979  0.55486  0.41888  1.0000
  C   C142      1.0  0.25743  0.56021  0.34079  1.0000
  N   N31       1.0  0.25379  0.54407  0.49598  1.0000
  H   H121      1.0  0.26078  0.53691  0.54465  1.0000
  H   H122      1.0  0.23286  0.53680  0.49636  1.0000
  N   N32       1.0  0.31531  0.56781  0.49318  1.0000
  H   H123      1.0  0.33635  0.57591  0.49223  1.0000
  H   H124      1.0  0.30790  0.57136  0.54870  1.0000
  C   C143      1.0  0.45169  0.75452  0.40209  1.0000
  C   C144      1.0  0.47494  0.75347  0.44798  1.0000
  C   C145      1.0  0.47413  0.72603  0.45720  1.0000
  C   C146      1.0  0.45256  0.70104  0.40927  1.0000
  N   N33       1.0  0.49359  0.72338  0.51196  1.0000
  H   H125      1.0  0.50566  0.73836  0.55500  1.0000
  H   H126      1.0  0.49309  0.70491  0.52042  1.0000
  N   N34       1.0  0.49806  0.77882  0.48059  1.0000
  H   H127      1.0  0.49938  0.79773  0.47357  1.0000
  H   H128      1.0  0.51599  0.77988  0.50096  1.0000
  C   C147      1.0  0.25655  0.69986  0.28404  1.0000
  C   C148      1.0  0.27948  0.70218  0.34096  1.0000
  C   C149      1.0  0.30599  0.72972  0.34926  1.0000
  C   C150      1.0  0.31116  0.75323  0.29008  1.0000
  N   N35       1.0  0.32632  0.73337  0.41316  1.0000
  H   H129      1.0  0.32152  0.72006  0.46336  1.0000
  H   H130      1.0  0.34512  0.75111  0.41842  1.0000
  N   N36       1.0  0.27653  0.67777  0.38380  1.0000
  H   H131      1.0  0.25961  0.65850  0.37491  1.0000
  H   H132      1.0  0.29294  0.67741  0.41150  1.0000
  C   C151      1.0  0.69983  0.44712  0.33053  1.0000
  C   C152      1.0  0.71236  0.44696  0.41570  1.0000
  C   C153      1.0  0.74187  0.45282  0.41923  1.0000
  C   C154      1.0  0.75431  0.44760  0.34111  1.0000
  N   N37       1.0  0.75783  0.46355  0.49642  1.0000
  H   H133      1.0  0.75078  0.47041  0.54579  1.0000
  H   H134      1.0  0.77871  0.47058  0.49760  1.0000
  N   N38       1.0  0.69629  0.43981  0.49328  1.0000
  H   H135      1.0  0.67526  0.43173  0.49216  1.0000
  H   H136      1.0  0.70363  0.43615  0.54875  1.0000
  C   C155      1.0  0.56020  0.25338  0.40256  1.0000
  C   C156      1.0  0.53703  0.25449  0.44875  1.0000
  C   C157      1.0  0.53787  0.28195  0.45793  1.0000
  C   C158      1.0  0.55937  0.30688  0.40965  1.0000
  N   N39       1.0  0.51849  0.28464  0.51294  1.0000
  H   H137      1.0  0.50649  0.26971  0.55619  1.0000
  H   H138      1.0  0.51901  0.30313  0.52135  1.0000
  N   N40       1.0  0.51394  0.22916  0.48168  1.0000
  H   H139      1.0  0.51260  0.21025  0.47467  1.0000
  H   H140      1.0  0.49605  0.22814  0.50227  1.0000
  C   C159      1.0  0.75521  0.30799  0.28383  1.0000
  C   C160      1.0  0.73227  0.30573  0.34055  1.0000
  C   C161      1.0  0.70574  0.27821  0.34891  1.0000
  C   C162      1.0  0.70058  0.25465  0.28997  1.0000
  N   N41       1.0  0.68538  0.27461  0.41264  1.0000
  H   H141      1.0  0.69016  0.28797  0.46272  1.0000
  H   H142      1.0  0.66658  0.25689  0.41794  1.0000
  N   N42       1.0  0.73524  0.33019  0.38311  1.0000
  H   H143      1.0  0.75218  0.34945  0.37450  1.0000
  H   H144      1.0  0.71883  0.33058  0.41076  1.0000
