data_image0
_chemical_formula_structural       C2NCHCHCHC2H4C3N2CH2C4NC2NHNCH2C4NC2NHNCH2C2H2CH2C2H2CH2C2H2CHC2H2CH2C2H2CH2C2H2CH2C3HC6H3C6H3C6H3C6H3C6H3CH3C2H4C2H4C4NC2NHNH2C4NC2NHNH2C4NC2NHNC4NC2NHNH2C4NC2NHNH2C4NC2NHNH2
_chemical_formula_sum              "C117 N27 H81"
_cell_length_a       30.7541
_cell_length_b       30.7541
_cell_length_c       14.8267
_cell_angle_alpha    90
_cell_angle_beta     90
_cell_angle_gamma    120

_space_group_name_H-M_alt    "P 1"
_space_group_IT_number       1

loop_
  _space_group_symop_operation_xyz
  'x, y, z'

loop_
  _atom_site_type_symbol
  _atom_site_label
  _atom_site_symmetry_multiplicity
  _atom_site_fract_x
  _atom_site_fract_y
  _atom_site_fract_z
  _atom_site_occupancy
  C   C1        1.0  0.03657  0.49676  0.30408  1.0000
  C   C2        1.0  0.06344  0.53044  0.37549  1.0000
  N   N1        1.0  0.06145  0.49034  0.23400  1.0000
  C   C3        1.0  0.03842  0.46054  0.16202  1.0000
  H   H1        1.0  0.05939  0.45800  0.11103  1.0000
  C   C4        1.0  0.03444  0.53749  0.44194  1.0000
  H   H2        1.0  0.05206  0.56195  0.49400  1.0000
  C   C5        1.0  0.11774  0.55858  0.37646  1.0000
  H   H3        1.0  0.17182  0.66600  0.08203  1.0000
  C   C6        1.0  0.14438  0.61203  0.37080  1.0000
  C   C7        1.0  0.14580  0.53322  0.37097  1.0000
  H   H4        1.0  0.12493  0.63099  0.37346  1.0000
  H   H5        1.0  0.12744  0.49485  0.37503  1.0000
  H   H6        1.0  0.16372  0.71698  0.63406  1.0000
  H   H7        1.0  0.17262  0.64333  0.63914  1.0000
  C   C8        1.0  0.95415  0.47600  0.37016  1.0000
  C   C9        1.0  0.98294  0.47039  0.30089  1.0000
  C   C10       1.0  0.98580  0.43575  0.15703  1.0000
  N   N2        1.0  0.96043  0.44170  0.22665  1.0000
  N   N3        1.0  0.96118  0.40735  0.07988  1.0000
  C   C11       1.0  0.94021  0.43141  0.02156  1.0000
  H   H8        1.0  0.93315  0.37252  0.09969  1.0000
  H   H9        1.0  0.91113  0.43546  0.05649  1.0000
  C   C12       1.0  0.53860  0.48101  0.37003  1.0000
  C   C13       1.0  0.54417  0.51538  0.30073  1.0000
  C   C14       1.0  0.51781  0.54265  0.30395  1.0000
  C   C15       1.0  0.48422  0.53592  0.37547  1.0000
  N   N4        1.0  0.52419  0.57391  0.23383  1.0000
  C   C16       1.0  0.55388  0.58060  0.16173  1.0000
  C   C17       1.0  0.57869  0.55278  0.15675  1.0000
  N   N5        1.0  0.57281  0.52152  0.22642  1.0000
  H   H10       1.0  0.55649  0.60418  0.11083  1.0000
  N   N6        1.0  0.60710  0.55657  0.07961  1.0000
  C   C18       1.0  0.58307  0.51152  0.02133  1.0000
  H   H11       1.0  0.64194  0.56342  0.09940  1.0000
  H   H12       1.0  0.57908  0.47843  0.05628  1.0000
  C   C19       1.0  0.53358  0.06040  0.37002  1.0000
  C   C20       1.0  0.49922  0.03161  0.30070  1.0000
  C   C21       1.0  0.47194  0.97798  0.30389  1.0000
  C   C22       1.0  0.47868  0.95110  0.37537  1.0000
  N   N7        1.0  0.44069  0.95311  0.23375  1.0000
  C   C23       1.0  0.43401  0.97614  0.16167  1.0000
  C   C24       1.0  0.46181  0.02876  0.15673  1.0000
  N   N8        1.0  0.49308  0.05412  0.22641  1.0000
  H   H13       1.0  0.41043  0.95517  0.11075  1.0000
  N   N9        1.0  0.45803  0.05339  0.07959  1.0000
  C   C25       1.0  0.50310  0.07443  0.02133  1.0000
  H   H14       1.0  0.45118  0.08138  0.09940  1.0000
  H   H15       1.0  0.53617  0.10354  0.05630  1.0000
  C   C26       1.0  0.25862  0.54897  0.26140  1.0000
  C   C27       1.0  0.30423  0.54894  0.26145  1.0000
  H   H16       1.0  0.32738  0.56463  0.20695  1.0000
  H   H17       1.0  0.25094  0.56432  0.20657  1.0000
  C   C28       1.0  0.33959  0.52104  0.01983  1.0000
  H   H18       1.0  0.33544  0.55361  0.03422  1.0000
  H   H19       1.0  0.34825  0.50871  0.08294  1.0000
  C   C29       1.0  0.46568  0.71245  0.26116  1.0000
  C   C30       1.0  0.46567  0.75806  0.26086  1.0000
  H   H20       1.0  0.44992  0.76540  0.20630  1.0000
  H   H21       1.0  0.45047  0.68933  0.20639  1.0000
  C   C31       1.0  0.49384  0.82188  0.01924  1.0000
  H   H22       1.0  0.46137  0.78512  0.03383  1.0000
  H   H23       1.0  0.50621  0.84295  0.08226  1.0000
  C   C32       1.0  0.30202  0.75620  0.26075  1.0000
  C   C33       1.0  0.25638  0.71061  0.26068  1.0000
  H   H24       1.0  0.24893  0.68744  0.20622  1.0000
  H   H25       1.0  0.32510  0.76394  0.20599  1.0000
  C   C34       1.0  0.19287  0.67475  0.01897  1.0000
  H   H26       1.0  0.22959  0.67893  0.03343  1.0000
  C   C35       1.0  0.76122  0.46291  0.25078  1.0000
  C   C36       1.0  0.71519  0.46204  0.25201  1.0000
  H   H27       1.0  0.69168  0.44576  0.19823  1.0000
  H   H28       1.0  0.76863  0.44733  0.19597  1.0000
  C   C37       1.0  0.68422  0.48362  0.01394  1.0000
  H   H29       1.0  0.69474  0.45534  0.02902  1.0000
  H   H30       1.0  0.67332  0.49393  0.07689  1.0000
  C   C38       1.0  0.55148  0.30100  0.25033  1.0000
  C   C39       1.0  0.55242  0.25589  0.25196  1.0000
  H   H31       1.0  0.56855  0.24847  0.19817  1.0000
  H   H32       1.0  0.56707  0.32398  0.19552  1.0000
  C   C40       1.0  0.53109  0.20356  0.01375  1.0000
  H   H33       1.0  0.55952  0.24231  0.02881  1.0000
  H   H34       1.0  0.52075  0.18232  0.07666  1.0000
  C   C41       1.0  0.71342  0.25343  0.25105  1.0000
  C   C42       1.0  0.75863  0.29942  0.25233  1.0000
  H   H35       1.0  0.76593  0.32299  0.19864  1.0000
  H   H36       1.0  0.69044  0.24603  0.19621  1.0000
  C   C43       1.0  0.81103  0.33049  0.01429  1.0000
  H   H37       1.0  0.77225  0.32008  0.02932  1.0000
  H   H38       1.0  0.83224  0.34140  0.07723  1.0000
  C   C44       1.0  0.19767  0.55898  0.34987  1.0000
  C   C45       1.0  0.22134  0.61159  0.33893  1.0000
  C   C46       1.0  0.19635  0.63933  0.34987  1.0000
  H   H39       1.0  0.25943  0.63104  0.32814  1.0000
  C   C47       1.0  0.45577  0.64168  0.35007  1.0000
  C   C48       1.0  0.40314  0.61279  0.33954  1.0000
  C   C49       1.0  0.37538  0.56005  0.35044  1.0000
  C   C50       1.0  0.40266  0.53536  0.37139  1.0000
  C   C51       1.0  0.45612  0.56212  0.37655  1.0000
  C   C52       1.0  0.48154  0.61555  0.37089  1.0000
  H   H40       1.0  0.38369  0.49695  0.37383  1.0000
  H   H41       1.0  0.51992  0.63552  0.37464  1.0000
  H   H42       1.0  0.38371  0.63146  0.32888  1.0000
  C   C53       1.0  0.37289  0.81695  0.34958  1.0000
  C   C54       1.0  0.40179  0.79324  0.33864  1.0000
  C   C55       1.0  0.45450  0.81815  0.34988  1.0000
  C   C56       1.0  0.47920  0.87009  0.37112  1.0000
  C   C57       1.0  0.45244  0.89680  0.37639  1.0000
  C   C58       1.0  0.39902  0.86880  0.37074  1.0000
  H   H43       1.0  0.51760  0.88952  0.37364  1.0000
  H   H44       1.0  0.37905  0.88721  0.37468  1.0000
  H   H45       1.0  0.38310  0.75515  0.32788  1.0000
  C   C59       1.0  0.82156  0.45210  0.33923  1.0000
  C   C60       1.0  0.79637  0.39931  0.32927  1.0000
  C   C61       1.0  0.81978  0.37017  0.34097  1.0000
  C   C62       1.0  0.87177  0.39626  0.36155  1.0000
  C   C63       1.0  0.89989  0.44971  0.36726  1.0000
  C   C64       1.0  0.87339  0.47661  0.36105  1.0000
  H   H46       1.0  0.89002  0.37618  0.36633  1.0000
  H   H47       1.0  0.89285  0.51500  0.36411  1.0000
  H   H48       1.0  0.75826  0.38077  0.31886  1.0000
  C   C65       1.0  0.56249  0.37233  0.33897  1.0000
  C   C66       1.0  0.61526  0.39995  0.32869  1.0000
  C   C67       1.0  0.64441  0.45250  0.34051  1.0000
  C   C68       1.0  0.61833  0.47838  0.36132  1.0000
  C   C69       1.0  0.56489  0.45305  0.36709  1.0000
  C   C70       1.0  0.53798  0.39965  0.36088  1.0000
  H   H49       1.0  0.63842  0.51671  0.36617  1.0000
  H   H50       1.0  0.49959  0.38070  0.36401  1.0000
  H   H51       1.0  0.63378  0.38038  0.31810  1.0000
  C   C71       1.0  0.64222  0.19307  0.33946  1.0000
  C   C72       1.0  0.61458  0.21821  0.32935  1.0000
  C   C73       1.0  0.56201  0.19473  0.34084  1.0000
  C   C74       1.0  0.53613  0.14273  0.36122  1.0000
  C   C75       1.0  0.56150  0.11466  0.36716  1.0000
  C   C76       1.0  0.61492  0.14122  0.36121  1.0000
  H   H52       1.0  0.49779  0.12443  0.36593  1.0000
  H   H53       1.0  0.63389  0.12180  0.36438  1.0000
  H   H54       1.0  0.63413  0.25631  0.31886  1.0000
  C   C77       1.0  0.98128  0.51082  0.43958  1.0000
  H   H55       1.0  0.96223  0.51686  0.49011  1.0000
  H   H56       1.0  0.96981  0.46842  0.66629  1.0000
  H   H57       1.0  0.92385  0.40842  0.62815  1.0000
  C   C78       1.0  0.47722  0.49990  0.44196  1.0000
  C   C79       1.0  0.50385  0.47338  0.43955  1.0000
  H   H58       1.0  0.49784  0.44832  0.49011  1.0000
  H   H59       1.0  0.45281  0.49311  0.49410  1.0000
  H   H60       1.0  0.54603  0.50405  0.66610  1.0000
  H   H61       1.0  0.60604  0.51816  0.62789  1.0000
  C   C80       1.0  0.51469  0.98010  0.44187  1.0000
  C   C81       1.0  0.54121  0.03326  0.43949  1.0000
  H   H62       1.0  0.56626  0.05230  0.49008  1.0000
  H   H63       1.0  0.52148  0.96248  0.49400  1.0000
  H   H64       1.0  0.51057  0.04487  0.66610  1.0000
  H   H65       1.0  0.49645  0.09076  0.62790  1.0000
  C   C82       1.0  0.32228  0.53631  0.33934  1.0000
  C   C83       1.0  0.28928  0.51804  0.41452  1.0000
  C   C84       1.0  0.24263  0.51798  0.41448  1.0000
  C   C85       1.0  0.22790  0.53622  0.33920  1.0000
  N   N10       1.0  0.21581  0.50569  0.49261  1.0000
  C   C86       1.0  0.23015  0.49212  0.56905  1.0000
  C   C87       1.0  0.27601  0.49242  0.56975  1.0000
  N   N11       1.0  0.30378  0.50590  0.49279  1.0000
  H   H66       1.0  0.20833  0.48319  0.62557  1.0000
  N   N12       1.0  0.29244  0.47962  0.64889  1.0000
  H   H67       1.0  0.29736  0.44968  0.63486  1.0000
  H   H68       1.0  0.37106  0.53220  0.64011  1.0000
  C   C88       1.0  0.47817  0.78872  0.33867  1.0000
  C   C89       1.0  0.49662  0.77428  0.41400  1.0000
  C   C90       1.0  0.49679  0.72774  0.41417  1.0000
  C   C91       1.0  0.47857  0.69466  0.33904  1.0000
  N   N13       1.0  0.50926  0.71340  0.49232  1.0000
  C   C92       1.0  0.52285  0.74143  0.56862  1.0000
  C   C93       1.0  0.52245  0.78694  0.56913  1.0000
  N   N14       1.0  0.50881  0.80104  0.49215  1.0000
  H   H69       1.0  0.53195  0.72869  0.62515  1.0000
  N   N15       1.0  0.53530  0.81628  0.64812  1.0000
  H   H70       1.0  0.56514  0.85117  0.63387  1.0000
  H   H71       1.0  0.48251  0.84205  0.63953  1.0000
  C   C94       1.0  0.22569  0.69240  0.33853  1.0000
  C   C95       1.0  0.24039  0.72536  0.41386  1.0000
  C   C96       1.0  0.28694  0.77205  0.41402  1.0000
  C   C97       1.0  0.31988  0.78674  0.33875  1.0000
  N   N16       1.0  0.30140  0.79877  0.49225  1.0000
  C   C98       1.0  0.27342  0.78434  0.56859  1.0000
  C   C99       1.0  0.22788  0.73846  0.56911  1.0000
  N   N17       1.0  0.21368  0.71077  0.49206  1.0000
  H   H72       1.0  0.28627  0.80607  0.62523  1.0000
  N   N18       1.0  0.19858  0.72192  0.64816  1.0000
  C   C100      1.0  0.69746  0.47489  0.32997  1.0000
  C   C101      1.0  0.73081  0.49360  0.40465  1.0000
  C   C102      1.0  0.77777  0.49421  0.40360  1.0000
  C   C103      1.0  0.79233  0.47598  0.32813  1.0000
  N   N19       1.0  0.80514  0.50693  0.48108  1.0000
  C   C104      1.0  0.79103  0.52029  0.55797  1.0000
  C   C105      1.0  0.74457  0.51870  0.56007  1.0000
  N   N20       1.0  0.71626  0.50487  0.48374  1.0000
  H   H73       1.0  0.81300  0.52902  0.61427  1.0000
  N   N21       1.0  0.72725  0.52875  0.64096  1.0000
  H   H74       1.0  0.71728  0.55545  0.62869  1.0000
  H   H75       1.0  0.65189  0.46723  0.63523  1.0000
  C   C106      1.0  0.53957  0.22530  0.32991  1.0000
  C   C107      1.0  0.52106  0.24023  0.40456  1.0000
  C   C108      1.0  0.52051  0.28660  0.40342  1.0000
  C   C109      1.0  0.53868  0.31924  0.32768  1.0000
  N   N22       1.0  0.50792  0.30137  0.48090  1.0000
  C   C110      1.0  0.49465  0.27401  0.55791  1.0000
  C   C111      1.0  0.49609  0.22906  0.56008  1.0000
  N   N23       1.0  0.50979  0.21447  0.48373  1.0000
  H   H76       1.0  0.48594  0.28728  0.61418  1.0000
  N   N24       1.0  0.48603  0.20172  0.64099  1.0000
  H   H77       1.0  0.45918  0.16509  0.62880  1.0000
  H   H78       1.0  0.54730  0.18749  0.63489  1.0000
  C   C112      1.0  0.78914  0.31712  0.33040  1.0000
  C   C113      1.0  0.77438  0.28378  0.40513  1.0000
  C   C114      1.0  0.72803  0.23684  0.40403  1.0000
  C   C115      1.0  0.69534  0.22237  0.32842  1.0000
  N   N25       1.0  0.71332  0.20949  0.48152  1.0000
  C   C116      1.0  0.74076  0.22359  0.55844  1.0000
  C   C117      1.0  0.78567  0.27003  0.56057  1.0000
  N   N26       1.0  0.80019  0.29833  0.48423  1.0000
  H   H79       1.0  0.72747  0.20168  0.61480  1.0000
  N   N27       1.0  0.81299  0.28734  0.64149  1.0000
  H   H80       1.0  0.84965  0.29722  0.62929  1.0000
  H   H81       1.0  0.82704  0.36278  0.63548  1.0000
