data_image0
_chemical_formula_structural       CNH2CO2C6H2NO2C7H2N2O4C7H2N2O4C2HC3HNH2NH2C2HC3HNH2NH2C2HC3HNH2NH2C2HC3HNH2NH2C2HC3HNH2NH2C2HC3HNH2NH2CNCNCNC18H12CNCNCNC18H12CNCNCNC18H12CNCNCNC18H12CNCNCNC18H12CNCNCNC18H12C2HC2NHNH2C2HC3HNH2NH2C2HC3HNH2NH2C7H2N2O4C7H2N2O4C7H2N2O4C7H2N2O4C7H2N2O4C7H2N2O4
_chemical_formula_sum              "C234 N54 H144 O36"
_cell_length_a       76.4628
_cell_length_b       76.4628
_cell_length_c       14.9869
_cell_angle_alpha    90
_cell_angle_beta     90
_cell_angle_gamma    120

_space_group_name_H-M_alt    "P 1"
_space_group_IT_number       1

loop_
  _space_group_symop_operation_xyz
  'x, y, z'

loop_
  _atom_site_type_symbol
  _atom_site_label
  _atom_site_symmetry_multiplicity
  _atom_site_fract_x
  _atom_site_fract_y
  _atom_site_fract_z
  _atom_site_occupancy
  C   C1        1.0  0.01156  0.50739  0.32737  1.0000
  N   N1        1.0  0.01281  0.51623  0.16951  1.0000
  H   H1        1.0  0.01348  0.50124  0.46309  1.0000
  H   H2        1.0  0.00192  0.53087  0.42024  1.0000
  C   C2        1.0  0.02293  0.51693  0.24973  1.0000
  O   O1        1.0  0.01693  0.50766  0.10822  1.0000
  O   O2        1.0  0.01728  0.53362  0.14375  1.0000
  C   C3        1.0  0.02179  0.50820  0.40717  1.0000
  C   C4        1.0  0.94699  0.47385  0.32521  1.0000
  C   C5        1.0  0.95844  0.46709  0.27676  1.0000
  C   C6        1.0  0.97977  0.47865  0.27883  1.0000
  C   C7        1.0  0.99004  0.49693  0.32710  1.0000
  C   C8        1.0  0.04426  0.52724  0.25436  1.0000
  H   H3        1.0  0.05238  0.53410  0.19792  1.0000
  H   H4        1.0  0.98788  0.47353  0.24420  1.0000
  N   N2        1.0  0.94848  0.44926  0.22476  1.0000
  O   O3        1.0  0.95302  0.43633  0.24952  1.0000
  O   O4        1.0  0.95267  0.45290  0.14335  1.0000
  C   C9        1.0  0.52724  0.47335  0.32524  1.0000
  C   C10       1.0  0.53401  0.49156  0.27680  1.0000
  C   C11       1.0  0.52245  0.50133  0.27885  1.0000
  C   C12       1.0  0.50417  0.49332  0.32709  1.0000
  C   C13       1.0  0.49371  0.50438  0.32735  1.0000
  C   C14       1.0  0.48417  0.50621  0.24971  1.0000
  C   C15       1.0  0.47385  0.51722  0.25434  1.0000
  H   H5        1.0  0.46700  0.51849  0.19789  1.0000
  H   H6        1.0  0.52758  0.51457  0.24423  1.0000
  N   N3        1.0  0.48486  0.49677  0.16950  1.0000
  N   N4        1.0  0.55184  0.49943  0.22482  1.0000
  O   O5        1.0  0.49343  0.50947  0.10820  1.0000
  O   O6        1.0  0.56478  0.51690  0.24961  1.0000
  O   O7        1.0  0.46748  0.48386  0.14375  1.0000
  O   O8        1.0  0.54822  0.49999  0.14341  1.0000
  C   C16       1.0  0.52773  0.05412  0.32521  1.0000
  C   C17       1.0  0.50952  0.04267  0.27676  1.0000
  C   C18       1.0  0.49975  0.02134  0.27883  1.0000
  C   C19       1.0  0.50776  0.01107  0.32711  1.0000
  C   C20       1.0  0.49670  0.98955  0.32737  1.0000
  C   C21       1.0  0.49487  0.97818  0.24973  1.0000
  C   C22       1.0  0.48385  0.95685  0.25436  1.0000
  H   H7        1.0  0.48259  0.94873  0.19791  1.0000
  H   H8        1.0  0.48651  0.01323  0.24421  1.0000
  N   N5        1.0  0.50430  0.98831  0.16951  1.0000
  N   N6        1.0  0.50165  0.05263  0.22476  1.0000
  O   O9        1.0  0.49160  0.98418  0.10822  1.0000
  O   O10       1.0  0.48418  0.04809  0.24953  1.0000
  O   O11       1.0  0.51721  0.98383  0.14375  1.0000
  O   O12       1.0  0.50110  0.04844  0.14335  1.0000
  C   C23       1.0  0.28966  0.54749  0.28015  1.0000
  C   C24       1.0  0.30951  0.55068  0.28456  1.0000
  H   H9        1.0  0.32098  0.56338  0.25539  1.0000
  C   C25       1.0  0.21980  0.53261  0.33484  1.0000
  C   C26       1.0  0.22487  0.52605  0.25508  1.0000
  C   C27       1.0  0.24179  0.52317  0.25589  1.0000
  H   H10       1.0  0.24630  0.51967  0.19743  1.0000
  N   N7        1.0  0.28686  0.56175  0.23834  1.0000
  H   H11       1.0  0.29808  0.57363  0.21113  1.0000
  H   H12       1.0  0.27383  0.56100  0.23650  1.0000
  N   N8        1.0  0.21480  0.52349  0.17692  1.0000
  H   H13       1.0  0.21866  0.51922  0.12280  1.0000
  H   H14       1.0  0.20315  0.52534  0.17281  1.0000
  C   C28       1.0  0.45362  0.74241  0.28006  1.0000
  C   C29       1.0  0.45043  0.75907  0.28443  1.0000
  H   H15       1.0  0.43775  0.75785  0.25516  1.0000
  C   C30       1.0  0.46844  0.68739  0.33487  1.0000
  C   C31       1.0  0.47503  0.69904  0.25518  1.0000
  C   C32       1.0  0.47788  0.71883  0.25595  1.0000
  H   H16       1.0  0.48144  0.72686  0.19752  1.0000
  N   N9        1.0  0.43935  0.72536  0.23829  1.0000
  H   H17       1.0  0.42747  0.72470  0.21112  1.0000
  H   H18       1.0  0.44007  0.71306  0.23661  1.0000
  N   N10       1.0  0.47762  0.69154  0.17704  1.0000
  H   H19       1.0  0.48190  0.69968  0.12294  1.0000
  H   H20       1.0  0.47577  0.67805  0.17291  1.0000
  C   C33       1.0  0.25872  0.71143  0.28013  1.0000
  C   C34       1.0  0.24207  0.69158  0.28454  1.0000
  H   H21       1.0  0.24329  0.68011  0.25537  1.0000
  C   C35       1.0  0.31369  0.78129  0.33485  1.0000
  C   C36       1.0  0.30206  0.77622  0.25510  1.0000
  C   C37       1.0  0.28227  0.75930  0.25589  1.0000
  H   H22       1.0  0.27426  0.75479  0.19743  1.0000
  N   N11       1.0  0.27577  0.71423  0.23834  1.0000
  H   H23       1.0  0.27643  0.70301  0.21112  1.0000
  H   H24       1.0  0.28806  0.72725  0.23650  1.0000
  N   N12       1.0  0.30958  0.78630  0.17694  1.0000
  H   H25       1.0  0.30145  0.78244  0.12282  1.0000
  H   H26       1.0  0.32308  0.79794  0.17283  1.0000
  C   C38       1.0  0.71137  0.45335  0.28088  1.0000
  C   C39       1.0  0.69154  0.45020  0.28611  1.0000
  H   H27       1.0  0.68000  0.43752  0.25714  1.0000
  C   C40       1.0  0.78120  0.46793  0.33405  1.0000
  C   C41       1.0  0.77613  0.47460  0.25460  1.0000
  C   C42       1.0  0.75923  0.47750  0.25578  1.0000
  H   H28       1.0  0.75474  0.48112  0.19753  1.0000
  N   N13       1.0  0.71405  0.43907  0.23867  1.0000
  H   H29       1.0  0.70276  0.42719  0.21171  1.0000
  H   H30       1.0  0.72706  0.43977  0.23629  1.0000
  N   N14       1.0  0.78618  0.47722  0.17634  1.0000
  H   H31       1.0  0.78233  0.48156  0.12241  1.0000
  H   H32       1.0  0.79780  0.47534  0.17195  1.0000
  C   C43       1.0  0.54775  0.25826  0.28094  1.0000
  C   C44       1.0  0.55091  0.24159  0.28620  1.0000
  H   H33       1.0  0.56361  0.24275  0.25732  1.0000
  C   C45       1.0  0.53311  0.31346  0.33400  1.0000
  C   C46       1.0  0.52647  0.30175  0.25450  1.0000
  C   C47       1.0  0.52354  0.28193  0.25570  1.0000
  H   H34       1.0  0.51997  0.27384  0.19743  1.0000
  N   N15       1.0  0.56203  0.27522  0.23869  1.0000
  H   H35       1.0  0.57389  0.27582  0.21169  1.0000
  H   H36       1.0  0.56129  0.28751  0.23616  1.0000
  N   N16       1.0  0.52387  0.30919  0.17622  1.0000
  H   H37       1.0  0.51954  0.30100  0.12228  1.0000
  H   H38       1.0  0.52577  0.32270  0.17184  1.0000
  C   C48       1.0  0.74288  0.28972  0.28083  1.0000
  C   C49       1.0  0.75956  0.30954  0.28604  1.0000
  H   H39       1.0  0.75842  0.32108  0.25703  1.0000
  C   C50       1.0  0.68761  0.21989  0.33403  1.0000
  C   C51       1.0  0.69936  0.22496  0.25460  1.0000
  C   C52       1.0  0.71917  0.24186  0.25578  1.0000
  H   H40       1.0  0.72727  0.24634  0.19754  1.0000
  N   N17       1.0  0.72592  0.28704  0.23860  1.0000
  H   H41       1.0  0.72534  0.29832  0.21162  1.0000
  H   H42       1.0  0.71361  0.27404  0.23624  1.0000
  N   N18       1.0  0.69193  0.21491  0.17634  1.0000
  H   H43       1.0  0.70013  0.21876  0.12242  1.0000
  H   H44       1.0  0.67842  0.20328  0.17195  1.0000
  C   C53       1.0  0.17189  0.60188  0.34969  1.0000
  N   N19       1.0  0.15141  0.59143  0.34386  1.0000
  C   C54       1.0  0.14070  0.57087  0.33776  1.0000
  N   N20       1.0  0.15133  0.56088  0.33627  1.0000
  C   C55       1.0  0.17184  0.57062  0.34043  1.0000
  N   N21       1.0  0.18146  0.59102  0.34731  1.0000
  C   C56       1.0  0.11914  0.56016  0.33448  1.0000
  C   C57       1.0  0.10813  0.57052  0.32825  1.0000
  C   C58       1.0  0.08688  0.56002  0.32717  1.0000
  C   C59       1.0  0.07592  0.53875  0.33316  1.0000
  C   C60       1.0  0.08667  0.52822  0.33842  1.0000
  C   C61       1.0  0.10792  0.53877  0.33890  1.0000
  C   C62       1.0  0.18364  0.62329  0.35503  1.0000
  C   C63       1.0  0.17698  0.63600  0.31810  1.0000
  C   C64       1.0  0.19003  0.65710  0.31341  1.0000
  C   C65       1.0  0.20996  0.66602  0.34666  1.0000
  C   C66       1.0  0.21619  0.65348  0.38847  1.0000
  C   C67       1.0  0.20329  0.63250  0.39227  1.0000
  C   C68       1.0  0.18336  0.56061  0.33749  1.0000
  C   C69       1.0  0.20474  0.57198  0.33247  1.0000
  C   C70       1.0  0.21644  0.56256  0.33063  1.0000
  C   C71       1.0  0.20720  0.54133  0.33415  1.0000
  C   C72       1.0  0.18593  0.52972  0.33838  1.0000
  C   C73       1.0  0.17419  0.53926  0.33969  1.0000
  H   H45       1.0  0.18523  0.66576  0.28130  1.0000
  H   H46       1.0  0.16305  0.62992  0.28891  1.0000
  H   H47       1.0  0.23051  0.65943  0.41360  1.0000
  H   H48       1.0  0.20873  0.62399  0.42064  1.0000
  H   H49       1.0  0.21224  0.58742  0.33004  1.0000
  H   H50       1.0  0.23184  0.57139  0.32729  1.0000
  H   H51       1.0  0.15883  0.53040  0.34355  1.0000
  H   H52       1.0  0.17889  0.51430  0.34121  1.0000
  H   H53       1.0  0.11507  0.53053  0.34386  1.0000
  H   H54       1.0  0.07908  0.51278  0.34251  1.0000
  H   H55       1.0  0.07947  0.56804  0.32348  1.0000
  H   H56       1.0  0.11545  0.58594  0.32467  1.0000
  C   C74       1.0  0.39921  0.57020  0.34964  1.0000
  N   N22       1.0  0.40966  0.56017  0.34380  1.0000
  C   C75       1.0  0.43023  0.57003  0.33772  1.0000
  N   N23       1.0  0.44021  0.59065  0.33625  1.0000
  C   C76       1.0  0.43046  0.60142  0.34042  1.0000
  N   N24       1.0  0.41007  0.59064  0.34729  1.0000
  C   C77       1.0  0.44094  0.55919  0.33445  1.0000
  C   C78       1.0  0.43058  0.53782  0.32821  1.0000
  C   C79       1.0  0.44108  0.52707  0.32713  1.0000
  C   C80       1.0  0.46235  0.53738  0.33311  1.0000
  C   C81       1.0  0.47288  0.55866  0.33837  1.0000
  C   C82       1.0  0.46233  0.56935  0.33886  1.0000
  C   C83       1.0  0.37780  0.56055  0.35499  1.0000
  C   C84       1.0  0.36508  0.54119  0.31793  1.0000
  C   C85       1.0  0.34399  0.53313  0.31333  1.0000
  C   C86       1.0  0.33507  0.54415  0.34668  1.0000
  C   C87       1.0  0.34762  0.56292  0.38845  1.0000
  C   C88       1.0  0.36859  0.57098  0.39228  1.0000
  C   C89       1.0  0.44048  0.62295  0.33750  1.0000
  C   C90       1.0  0.42909  0.63295  0.33255  1.0000
  C   C91       1.0  0.43851  0.65408  0.33074  1.0000
  C   C92       1.0  0.45973  0.66607  0.33419  1.0000
  C   C93       1.0  0.47135  0.65642  0.33832  1.0000
  C   C94       1.0  0.46182  0.63514  0.33964  1.0000
  H   H57       1.0  0.33531  0.51966  0.28137  1.0000
  H   H58       1.0  0.37116  0.53331  0.28895  1.0000
  H   H59       1.0  0.34166  0.57128  0.41360  1.0000
  H   H60       1.0  0.37710  0.58494  0.42060  1.0000
  H   H61       1.0  0.41365  0.62501  0.33016  1.0000
  H   H62       1.0  0.42967  0.66064  0.32745  1.0000
  H   H63       1.0  0.47068  0.62864  0.34343  1.0000
  H   H64       1.0  0.48677  0.66481  0.34112  1.0000
  H   H65       1.0  0.47057  0.58475  0.34380  1.0000
  H   H66       1.0  0.48831  0.56651  0.34246  1.0000
  H   H67       1.0  0.43306  0.51163  0.32345  1.0000
  H   H68       1.0  0.41515  0.52971  0.32465  1.0000
  C   C95       1.0  0.43088  0.82923  0.34965  1.0000
  N   N25       1.0  0.44091  0.84970  0.34383  1.0000
  C   C96       1.0  0.43105  0.86041  0.33775  1.0000
  N   N26       1.0  0.41043  0.84977  0.33629  1.0000
  C   C97       1.0  0.39966  0.82926  0.34045  1.0000
  N   N27       1.0  0.41045  0.81965  0.34730  1.0000
  C   C98       1.0  0.44189  0.88197  0.33448  1.0000
  C   C99       1.0  0.46327  0.89298  0.32824  1.0000
  C   C100      1.0  0.47401  0.91423  0.32715  1.0000
  C   C101      1.0  0.46370  0.92519  0.33315  1.0000
  C   C102      1.0  0.44243  0.91444  0.33844  1.0000
  C   C103      1.0  0.43173  0.89319  0.33890  1.0000
  C   C104      1.0  0.44054  0.81748  0.35497  1.0000
  C   C105      1.0  0.45992  0.82415  0.31804  1.0000
  C   C106      1.0  0.46798  0.81111  0.31332  1.0000
  C   C107      1.0  0.45696  0.79117  0.34654  1.0000
  C   C108      1.0  0.43819  0.78493  0.38835  1.0000
  C   C109      1.0  0.43012  0.79783  0.39218  1.0000
  C   C110      1.0  0.37813  0.81774  0.33752  1.0000
  C   C111      1.0  0.36813  0.79636  0.33252  1.0000
  C   C112      1.0  0.34700  0.78466  0.33069  1.0000
  C   C113      1.0  0.33502  0.79390  0.33418  1.0000
  C   C114      1.0  0.34467  0.81516  0.33838  1.0000
  C   C115      1.0  0.36595  0.82690  0.33970  1.0000
  H   H69       1.0  0.48144  0.81591  0.28121  1.0000
  H   H70       1.0  0.46776  0.83808  0.28887  1.0000
  H   H71       1.0  0.42984  0.77061  0.41348  1.0000
  H   H72       1.0  0.41616  0.79238  0.42056  1.0000
  H   H73       1.0  0.37607  0.78887  0.33011  1.0000
  H   H74       1.0  0.34043  0.76925  0.32736  1.0000
  H   H75       1.0  0.37245  0.84227  0.34354  1.0000
  H   H76       1.0  0.33629  0.82220  0.34120  1.0000
  H   H77       1.0  0.41633  0.88604  0.34388  1.0000
  H   H78       1.0  0.43457  0.92202  0.34253  1.0000
  H   H79       1.0  0.48945  0.92165  0.32346  1.0000
  H   H80       1.0  0.47137  0.88566  0.32465  1.0000
  C   C116      1.0  0.82956  0.39908  0.35278  1.0000
  N   N28       1.0  0.85003  0.40958  0.34640  1.0000
  C   C117      1.0  0.86061  0.43011  0.33837  1.0000
  N   N29       1.0  0.84990  0.44000  0.33550  1.0000
  C   C118      1.0  0.82940  0.43020  0.34051  1.0000
  N   N30       1.0  0.81988  0.40983  0.34917  1.0000
  C   C119      1.0  0.88212  0.44090  0.33368  1.0000
  C   C120      1.0  0.89353  0.43161  0.35713  1.0000
  C   C121      1.0  0.91477  0.44239  0.35437  1.0000
  C   C122      1.0  0.92543  0.46279  0.32674  1.0000
  C   C123      1.0  0.91413  0.47213  0.30307  1.0000
  C   C124      1.0  0.89290  0.46140  0.30668  1.0000
  C   C125      1.0  0.81788  0.37767  0.35865  1.0000
  C   C126      1.0  0.82456  0.36500  0.32145  1.0000
  C   C127      1.0  0.81153  0.34390  0.31641  1.0000
  C   C128      1.0  0.79158  0.33495  0.34945  1.0000
  C   C129      1.0  0.78532  0.34745  0.39146  1.0000
  C   C130      1.0  0.79822  0.36842  0.39574  1.0000
  C   C131      1.0  0.81782  0.44014  0.33676  1.0000
  C   C132      1.0  0.79645  0.42869  0.33149  1.0000
  C   C133      1.0  0.78468  0.43805  0.32951  1.0000
  C   C134      1.0  0.79385  0.45927  0.33307  1.0000
  C   C135      1.0  0.81511  0.47094  0.33736  1.0000
  C   C136      1.0  0.82691  0.46147  0.33886  1.0000
  H   H81       1.0  0.81636  0.33527  0.28422  1.0000
  H   H82       1.0  0.83851  0.37110  0.29244  1.0000
  H   H83       1.0  0.77097  0.34146  0.41629  1.0000
  H   H84       1.0  0.79275  0.37691  0.42398  1.0000
  H   H85       1.0  0.78900  0.41325  0.32913  1.0000
  H   H86       1.0  0.76928  0.42917  0.32614  1.0000
  H   H87       1.0  0.84227  0.47038  0.34296  1.0000
  H   H88       1.0  0.82210  0.48636  0.34035  1.0000
  H   H89       1.0  0.88541  0.46881  0.28850  1.0000
  H   H90       1.0  0.92130  0.48686  0.28239  1.0000
  H   H91       1.0  0.92242  0.43525  0.37420  1.0000
  H   H92       1.0  0.88652  0.41695  0.37855  1.0000
  C   C137      1.0  0.60201  0.43067  0.35284  1.0000
  N   N31       1.0  0.59151  0.44065  0.34646  1.0000
  C   C138      1.0  0.57098  0.43070  0.33840  1.0000
  N   N32       1.0  0.56108  0.41010  0.33550  1.0000
  C   C139      1.0  0.57089  0.39940  0.34050  1.0000
  N   N33       1.0  0.59125  0.41024  0.34919  1.0000
  C   C140      1.0  0.56019  0.44143  0.33371  1.0000
  C   C141      1.0  0.56948  0.46212  0.35721  1.0000
  C   C142      1.0  0.55871  0.47259  0.35443  1.0000
  C   C143      1.0  0.53831  0.46285  0.32678  1.0000
  C   C144      1.0  0.52897  0.44221  0.30307  1.0000
  C   C145      1.0  0.53969  0.43170  0.30669  1.0000
  C   C146      1.0  0.62341  0.44040  0.35874  1.0000
  C   C147      1.0  0.63609  0.45977  0.32165  1.0000
  C   C148      1.0  0.65718  0.46782  0.31654  1.0000
  C   C149      1.0  0.66613  0.45681  0.34950  1.0000
  C   C150      1.0  0.65364  0.43806  0.39155  1.0000
  C   C151      1.0  0.63267  0.42999  0.39579  1.0000
  C   C152      1.0  0.56094  0.37788  0.33672  1.0000
  C   C153      1.0  0.57238  0.36795  0.33138  1.0000
  C   C154      1.0  0.56301  0.34682  0.32938  1.0000
  C   C155      1.0  0.54179  0.33478  0.33301  1.0000
  C   C156      1.0  0.53012  0.34438  0.33741  1.0000
  C   C157      1.0  0.53961  0.36565  0.33888  1.0000
  H   H93       1.0  0.66580  0.48125  0.28417  1.0000
  H   H94       1.0  0.62998  0.46759  0.29241  1.0000
  H   H95       1.0  0.65962  0.42970  0.41639  1.0000
  H   H96       1.0  0.62417  0.41603  0.42409  1.0000
  H   H97       1.0  0.58781  0.37594  0.32898  1.0000
  H   H98       1.0  0.57188  0.34029  0.32597  1.0000
  H   H99       1.0  0.53070  0.37210  0.34307  1.0000
  H   H100      1.0  0.51471  0.33595  0.34043  1.0000
  H   H101      1.0  0.53229  0.41681  0.28847  1.0000
  H   H102      1.0  0.51424  0.43465  0.28237  1.0000
  H   H103      1.0  0.56585  0.48738  0.37426  1.0000
  H   H104      1.0  0.58415  0.46978  0.37859  1.0000
  C   C158      1.0  0.57041  0.17156  0.35282  1.0000
  N   N34       1.0  0.56044  0.15109  0.34644  1.0000
  C   C159      1.0  0.57038  0.14050  0.33837  1.0000
  N   N35       1.0  0.59098  0.15121  0.33548  1.0000
  C   C160      1.0  0.60168  0.17171  0.34050  1.0000
  N   N36       1.0  0.59084  0.18123  0.34919  1.0000
  C   C161      1.0  0.55966  0.11899  0.33367  1.0000
  C   C162      1.0  0.53896  0.10758  0.35712  1.0000
  C   C163      1.0  0.52849  0.08634  0.35437  1.0000
  C   C164      1.0  0.53823  0.07568  0.32673  1.0000
  C   C165      1.0  0.55887  0.08697  0.30306  1.0000
  C   C166      1.0  0.56938  0.10821  0.30666  1.0000
  C   C167      1.0  0.56069  0.18324  0.35874  1.0000
  C   C168      1.0  0.54134  0.17657  0.32154  1.0000
  C   C169      1.0  0.53328  0.18961  0.31653  1.0000
  C   C170      1.0  0.54430  0.20957  0.34958  1.0000
  C   C171      1.0  0.56305  0.21581  0.39160  1.0000
  C   C172      1.0  0.57110  0.20290  0.39586  1.0000
  C   C173      1.0  0.62320  0.18328  0.33673  1.0000
  C   C174      1.0  0.63313  0.20465  0.33144  1.0000
  C   C175      1.0  0.65426  0.21642  0.32945  1.0000
  C   C176      1.0  0.66630  0.20724  0.33305  1.0000
  C   C177      1.0  0.65671  0.18598  0.33737  1.0000
  C   C178      1.0  0.63544  0.17418  0.33886  1.0000
  H   H105      1.0  0.51983  0.18480  0.28434  1.0000
  H   H106      1.0  0.53348  0.16262  0.29252  1.0000
  H   H107      1.0  0.57142  0.23015  0.41646  1.0000
  H   H108      1.0  0.58507  0.20836  0.42411  1.0000
  H   H109      1.0  0.62514  0.21210  0.32905  1.0000
  H   H110      1.0  0.66078  0.23181  0.32607  1.0000
  H   H111      1.0  0.62899  0.15883  0.34299  1.0000
  H   H112      1.0  0.66514  0.17899  0.34038  1.0000
  H   H113      1.0  0.58427  0.11569  0.28849  1.0000
  H   H114      1.0  0.56643  0.07980  0.28237  1.0000
  H   H115      1.0  0.51370  0.07869  0.37420  1.0000
  H   H116      1.0  0.53130  0.11459  0.37855  1.0000
  C   C179      1.0  0.97867  0.50399  0.37470  1.0000
  C   C180      1.0  0.95734  0.49221  0.37317  1.0000
  H   H117      1.0  0.94913  0.49712  0.40841  1.0000
  C   C181      1.0  0.05448  0.52817  0.33435  1.0000
  C   C182      1.0  0.04312  0.51858  0.41249  1.0000
  N   N37       1.0  0.98741  0.52177  0.42037  1.0000
  H   H118      1.0  0.97929  0.52645  0.45112  1.0000
  N   N38       1.0  0.05187  0.51929  0.49259  1.0000
  H   H119      1.0  0.04376  0.51284  0.54537  1.0000
  H   H120      1.0  0.06642  0.52677  0.50070  1.0000
  C   C183      1.0  0.49710  0.47489  0.37468  1.0000
  C   C184      1.0  0.50889  0.46534  0.37317  1.0000
  H   H121      1.0  0.50397  0.45221  0.40841  1.0000
  C   C185      1.0  0.47293  0.52652  0.33432  1.0000
  C   C186      1.0  0.48253  0.52476  0.41246  1.0000
  C   C187      1.0  0.49290  0.51380  0.40714  1.0000
  H   H122      1.0  0.49986  0.51245  0.46307  1.0000
  N   N39       1.0  0.47932  0.46585  0.42034  1.0000
  H   H123      1.0  0.47465  0.45307  0.45122  1.0000
  H   H124      1.0  0.47024  0.47128  0.42036  1.0000
  N   N40       1.0  0.48181  0.53280  0.49254  1.0000
  H   H125      1.0  0.48827  0.53115  0.54533  1.0000
  H   H126      1.0  0.47434  0.53987  0.50065  1.0000
  C   C188      1.0  0.52619  0.02243  0.37470  1.0000
  C   C189      1.0  0.53574  0.04377  0.37317  1.0000
  H   H127      1.0  0.54886  0.05198  0.40841  1.0000
  C   C190      1.0  0.47456  0.94663  0.33435  1.0000
  C   C191      1.0  0.47633  0.95799  0.41249  1.0000
  C   C192      1.0  0.48729  0.97932  0.40717  1.0000
  H   H128      1.0  0.48864  0.98763  0.46309  1.0000
  N   N41       1.0  0.53523  0.01370  0.42037  1.0000
  H   H129      1.0  0.54803  0.02181  0.45111  1.0000
  H   H130      1.0  0.52982  0.99919  0.42024  1.0000
  N   N42       1.0  0.46830  0.94924  0.49259  1.0000
  H   H131      1.0  0.46995  0.95735  0.54537  1.0000
  H   H132      1.0  0.46122  0.93469  0.50070  1.0000
  C   C193      1.0  0.31431  0.53780  0.33322  1.0000
  C   C194      1.0  0.29853  0.52041  0.37478  1.0000
  C   C195      1.0  0.27848  0.51673  0.36860  1.0000
  C   C196      1.0  0.27388  0.53014  0.32315  1.0000
  C   C197      1.0  0.25418  0.52757  0.33215  1.0000
  C   C198      1.0  0.24856  0.53326  0.41243  1.0000
  C   C199      1.0  0.23126  0.53542  0.41300  1.0000
  H   H133      1.0  0.22816  0.54092  0.46955  1.0000
  H   H134      1.0  0.26726  0.50458  0.40181  1.0000
  N   N43       1.0  0.26111  0.53816  0.48877  1.0000
  N   N44       1.0  0.30326  0.50777  0.42596  1.0000
  O   O13       1.0  0.25166  0.52711  0.55391  1.0000
  O   O14       1.0  0.29854  0.50742  0.50654  1.0000
  O   O15       1.0  0.26828  0.55632  0.51115  1.0000
  O   O16       1.0  0.29434  0.49001  0.39647  1.0000
  C   C200      1.0  0.46332  0.77676  0.33301  1.0000
  C   C201      1.0  0.48069  0.77836  0.37472  1.0000
  C   C202      1.0  0.48436  0.76198  0.36858  1.0000
  C   C203      1.0  0.47095  0.74397  0.32316  1.0000
  C   C204      1.0  0.47350  0.72683  0.33223  1.0000
  C   C205      1.0  0.46780  0.71552  0.41250  1.0000
  C   C206      1.0  0.46559  0.69604  0.41295  1.0000
  H   H135      1.0  0.46014  0.68746  0.46959  1.0000
  H   H136      1.0  0.49649  0.76289  0.40193  1.0000
  N   N45       1.0  0.46293  0.72318  0.48887  1.0000
  N   N46       1.0  0.49333  0.79573  0.42595  1.0000
  O   O17       1.0  0.47398  0.72476  0.55397  1.0000
  O   O18       1.0  0.49364  0.79135  0.50654  1.0000
  O   O19       1.0  0.44477  0.71221  0.51126  1.0000
  O   O20       1.0  0.51110  0.80456  0.39657  1.0000
  C   C207      1.0  0.22438  0.68678  0.33316  1.0000
  C   C208      1.0  0.22277  0.70256  0.37475  1.0000
  C   C209      1.0  0.23914  0.72261  0.36857  1.0000
  C   C210      1.0  0.25715  0.72721  0.32313  1.0000
  C   C211      1.0  0.27427  0.74691  0.33214  1.0000
  C   C212      1.0  0.28558  0.75253  0.41243  1.0000
  C   C213      1.0  0.30504  0.76982  0.41301  1.0000
  H   H137      1.0  0.31364  0.77293  0.46957  1.0000
  H   H138      1.0  0.23821  0.73383  0.40179  1.0000
  N   N47       1.0  0.27794  0.73998  0.48876  1.0000
  N   N48       1.0  0.20539  0.69783  0.42593  1.0000
  O   O21       1.0  0.27632  0.74942  0.55390  1.0000
  O   O22       1.0  0.20977  0.70254  0.50651  1.0000
  O   O23       1.0  0.28892  0.73281  0.51115  1.0000
  O   O24       1.0  0.19655  0.70675  0.39645  1.0000
  C   C214      1.0  0.68687  0.46313  0.33516  1.0000
  C   C215      1.0  0.70274  0.48050  0.37636  1.0000
  C   C216      1.0  0.72276  0.48413  0.36942  1.0000
  C   C217      1.0  0.72724  0.47067  0.32363  1.0000
  C   C218      1.0  0.74690  0.47313  0.33225  1.0000
  C   C219      1.0  0.75252  0.46735  0.41226  1.0000
  C   C220      1.0  0.76974  0.46506  0.41229  1.0000
  H   H139      1.0  0.77289  0.45958  0.46876  1.0000
  H   H140      1.0  0.73405  0.49625  0.40251  1.0000
  N   N49       1.0  0.74004  0.46249  0.48882  1.0000
  N   N50       1.0  0.69814  0.49319  0.42791  1.0000
  O   O25       1.0  0.74958  0.47350  0.55391  1.0000
  O   O26       1.0  0.70298  0.49355  0.50831  1.0000
  O   O27       1.0  0.73280  0.44431  0.51105  1.0000
  O   O28       1.0  0.70704  0.51094  0.39830  1.0000
  C   C221      1.0  0.53800  0.22400  0.33532  1.0000
  C   C222      1.0  0.52060  0.22248  0.37640  1.0000
  C   C223      1.0  0.51697  0.23886  0.36943  1.0000
  C   C224      1.0  0.53042  0.25680  0.32360  1.0000
  C   C225      1.0  0.52794  0.27399  0.33215  1.0000
  C   C226      1.0  0.53371  0.28539  0.41218  1.0000
  C   C227      1.0  0.53594  0.30488  0.41233  1.0000
  H   H141      1.0  0.54148  0.31353  0.46872  1.0000
  H   H142      1.0  0.50483  0.23801  0.40239  1.0000
  N   N51       1.0  0.53860  0.27779  0.48871  1.0000
  N   N52       1.0  0.50790  0.20518  0.42790  1.0000
  O   O29       1.0  0.52758  0.27628  0.55384  1.0000
  O   O30       1.0  0.50752  0.20966  0.50829  1.0000
  O   O31       1.0  0.55677  0.28874  0.51091  1.0000
  O   O32       1.0  0.49016  0.19632  0.39820  1.0000
  C   C228      1.0  0.77716  0.31422  0.33512  1.0000
  C   C229      1.0  0.77865  0.29835  0.37640  1.0000
  C   C230      1.0  0.76226  0.27833  0.36947  1.0000
  C   C231      1.0  0.74432  0.27385  0.32364  1.0000
  C   C232      1.0  0.72711  0.25419  0.33225  1.0000
  C   C233      1.0  0.71571  0.24857  0.41226  1.0000
  C   C234      1.0  0.69620  0.23135  0.41228  1.0000
  H   H143      1.0  0.68757  0.22820  0.46875  1.0000
  H   H144      1.0  0.76308  0.26704  0.40259  1.0000
  N   N53       1.0  0.72332  0.26105  0.48882  1.0000
  N   N54       1.0  0.79594  0.30295  0.42797  1.0000
  O   O33       1.0  0.72480  0.25151  0.55392  1.0000
  O   O34       1.0  0.79145  0.29811  0.50837  1.0000
  O   O35       1.0  0.71240  0.26830  0.51103  1.0000
  O   O36       1.0  0.80479  0.29404  0.39842  1.0000
