data_image0
_chemical_formula_structural       C4N2O4C4N2O4C2H2C2H2C2H2C2H2C4N2O4C4N2O4C4N2O4C4N2O4C2H2C2H2C2H2C2H2C4N2O4C4N2O4C4N2O4C4N2O4CNCNCNCNCNCNCNCNCNCNCNCNCNCNCNCNCNCNCNCNCNCNCNCNCNCNCNCNCNCNCNCNCNCNCNCNC2H2C2H2C4N2O4C4N2O4C4N2O4C4N2O4C2H2C2H2C2H2C2H2C4N2O4C4N2O4C4N2O4C4N2O4C2H2C2H2C2H2C2H2
_chemical_formula_sum              "C144 N72 O72 H36"
_cell_length_a       34.0935
_cell_length_b       33.9327
_cell_length_c       14.8998
_cell_angle_alpha    90
_cell_angle_beta     90
_cell_angle_gamma    90.2785

_space_group_name_H-M_alt    "P 1"
_space_group_IT_number       1

loop_
  _space_group_symop_operation_xyz
  'x, y, z'

loop_
  _atom_site_type_symbol
  _atom_site_label
  _atom_site_symmetry_multiplicity
  _atom_site_fract_x
  _atom_site_fract_y
  _atom_site_fract_z
  _atom_site_occupancy
  C   C1        1.0  0.97152  0.53138  0.32933  1.0000
  C   C2        1.0  0.03027  0.47145  0.32046  1.0000
  C   C3        1.0  0.02888  0.50165  0.25402  1.0000
  C   C4        1.0  0.99965  0.53183  0.25888  1.0000
  N   N1        1.0  0.05470  0.49772  0.17996  1.0000
  N   N2        1.0  0.99608  0.56265  0.19500  1.0000
  O   O1        1.0  0.03728  0.48567  0.11094  1.0000
  O   O2        1.0  0.98962  0.55134  0.11619  1.0000
  O   O3        1.0  0.07388  0.52826  0.16143  1.0000
  O   O4        1.0  0.02378  0.58713  0.19762  1.0000
  C   C5        1.0  0.46980  0.97032  0.32256  1.0000
  C   C6        1.0  0.53060  0.02963  0.31707  1.0000
  C   C7        1.0  0.49420  0.03551  0.27150  1.0000
  C   C8        1.0  0.46390  0.00605  0.27440  1.0000
  N   N3        1.0  0.49009  0.07079  0.22157  1.0000
  N   N4        1.0  0.42775  0.00974  0.22802  1.0000
  O   O5        1.0  0.48808  0.06588  0.13824  1.0000
  O   O6        1.0  0.43082  0.01029  0.14413  1.0000
  O   O7        1.0  0.46333  0.09297  0.24916  1.0000
  O   O8        1.0  0.40643  0.03725  0.25550  1.0000
  C   C9        1.0  0.06485  0.26906  0.26884  1.0000
  C   C10       1.0  0.07340  0.30956  0.26485  1.0000
  H   H1        1.0  0.08303  0.32121  0.20531  1.0000
  H   H2        1.0  0.06847  0.25247  0.21202  1.0000
  C   C11       1.0  0.93731  0.73248  0.27268  1.0000
  C   C12       1.0  0.92860  0.69198  0.27054  1.0000
  H   H3        1.0  0.91906  0.67977  0.21151  1.0000
  H   H4        1.0  0.93389  0.74858  0.21507  1.0000
  C   C13       1.0  0.72559  0.03132  0.30123  1.0000
  C   C14       1.0  0.68524  0.03962  0.29907  1.0000
  H   H5        1.0  0.66836  0.02593  0.25138  1.0000
  H   H6        1.0  0.73640  0.01180  0.25511  1.0000
  C   C15       1.0  0.27801  0.97201  0.30734  1.0000
  C   C16       1.0  0.31803  0.96232  0.30709  1.0000
  H   H7        1.0  0.33636  0.97840  0.26659  1.0000
  H   H8        1.0  0.26897  0.99463  0.26693  1.0000
  C   C17       1.0  0.45483  0.75064  0.32867  1.0000
  C   C18       1.0  0.43420  0.83208  0.33242  1.0000
  C   C19       1.0  0.45428  0.81634  0.25705  1.0000
  C   C20       1.0  0.46409  0.77552  0.25445  1.0000
  N   N5        1.0  0.46270  0.84233  0.18479  1.0000
  N   N6        1.0  0.48131  0.76150  0.17421  1.0000
  O   O9        1.0  0.44520  0.83269  0.11383  1.0000
  O   O10       1.0  0.46249  0.73362  0.13874  1.0000
  O   O11       1.0  0.49888  0.84526  0.16997  1.0000
  O   O12       1.0  0.51636  0.75207  0.18513  1.0000
  C   C21       1.0  0.54850  0.24863  0.32132  1.0000
  C   C22       1.0  0.56921  0.16721  0.32325  1.0000
  C   C23       1.0  0.55024  0.18355  0.24701  1.0000
  C   C24       1.0  0.54031  0.22436  0.24547  1.0000
  N   N7        1.0  0.54330  0.15831  0.17260  1.0000
  N   N8        1.0  0.52380  0.23903  0.16500  1.0000
  O   O13       1.0  0.56284  0.16849  0.10490  1.0000
  O   O14       1.0  0.54297  0.26712  0.13147  1.0000
  O   O15       1.0  0.50761  0.15658  0.15197  1.0000
  O   O16       1.0  0.48865  0.24851  0.17478  1.0000
  C   C25       1.0  0.75159  0.54609  0.33147  1.0000
  C   C26       1.0  0.83385  0.56659  0.33160  1.0000
  C   C27       1.0  0.82024  0.53245  0.28527  1.0000
  C   C28       1.0  0.77956  0.52206  0.28574  1.0000
  N   N9        1.0  0.84814  0.51007  0.23637  1.0000
  N   N10       1.0  0.76942  0.48790  0.23617  1.0000
  O   O17       1.0  0.84164  0.50987  0.15335  1.0000
  O   O18       1.0  0.74413  0.49357  0.17626  1.0000
  O   O19       1.0  0.85126  0.47537  0.26486  1.0000
  O   O20       1.0  0.76097  0.45906  0.28531  1.0000
  C   C29       1.0  0.25178  0.45267  0.31803  1.0000
  C   C30       1.0  0.16862  0.43452  0.31505  1.0000
  C   C31       1.0  0.18383  0.46898  0.27193  1.0000
  C   C32       1.0  0.22483  0.47788  0.27340  1.0000
  N   N11       1.0  0.16052  0.49556  0.22253  1.0000
  N   N12       1.0  0.24003  0.51155  0.22871  1.0000
  O   O21       1.0  0.13981  0.51723  0.27147  1.0000
  O   O22       1.0  0.22662  0.54318  0.25992  1.0000
  O   O23       1.0  0.14185  0.47958  0.15953  1.0000
  O   O24       1.0  0.23503  0.51032  0.14517  1.0000
  C   C33       1.0  0.11485  0.05278  0.26027  1.0000
  C   C34       1.0  0.09186  0.08683  0.26122  1.0000
  H   H9        1.0  0.06983  0.08908  0.21470  1.0000
  H   H10       1.0  0.10848  0.03168  0.21319  1.0000
  C   C35       1.0  0.88689  0.94964  0.26631  1.0000
  C   C36       1.0  0.90972  0.91548  0.26600  1.0000
  H   H11       1.0  0.93134  0.91320  0.21850  1.0000
  H   H12       1.0  0.89291  0.97078  0.21907  1.0000
  C   C37       1.0  0.95340  0.10964  0.27366  1.0000
  C   C38       1.0  0.91919  0.08667  0.27424  1.0000
  H   H13       1.0  0.91707  0.06417  0.22861  1.0000
  H   H14       1.0  0.97462  0.10279  0.22757  1.0000
  C   C39       1.0  0.04754  0.89287  0.27161  1.0000
  C   C40       1.0  0.08159  0.91606  0.27060  1.0000
  H   H15       1.0  0.08296  0.93887  0.22562  1.0000
  H   H16       1.0  0.02568  0.89994  0.22731  1.0000
  C   C41       1.0  0.36248  0.54549  0.34079  1.0000
  C   C42       1.0  0.41039  0.61492  0.34386  1.0000
  C   C43       1.0  0.38498  0.60753  0.26973  1.0000
  C   C44       1.0  0.36139  0.57276  0.26790  1.0000
  N   N13       1.0  0.38342  0.63233  0.19304  1.0000
  N   N14       1.0  0.33934  0.56623  0.18866  1.0000
  O   O25       1.0  0.41574  0.63532  0.15301  1.0000
  O   O26       1.0  0.30332  0.56861  0.20331  1.0000
  O   O27       1.0  0.37040  0.66594  0.21125  1.0000
  O   O28       1.0  0.34724  0.53445  0.14949  1.0000
  C   C45       1.0  0.64026  0.45401  0.34944  1.0000
  C   C46       1.0  0.59289  0.38430  0.34538  1.0000
  C   C47       1.0  0.62271  0.39024  0.27947  1.0000
  C   C48       1.0  0.64636  0.42517  0.28167  1.0000
  N   N15       1.0  0.62870  0.36407  0.20659  1.0000
  N   N16       1.0  0.67429  0.43389  0.21389  1.0000
  O   O29       1.0  0.59902  0.36017  0.15730  1.0000
  O   O30       1.0  0.65862  0.43815  0.13821  1.0000
  O   O31       1.0  0.64061  0.33093  0.23187  1.0000
  O   O32       1.0  0.70044  0.40801  0.20880  1.0000
  C   C49       1.0  0.54720  0.64037  0.35290  1.0000
  C   C50       1.0  0.61582  0.59165  0.35544  1.0000
  C   C51       1.0  0.61308  0.62372  0.29387  1.0000
  C   C52       1.0  0.57898  0.64792  0.29280  1.0000
  N   N17       1.0  0.64198  0.63181  0.22772  1.0000
  N   N18       1.0  0.57808  0.67778  0.22660  1.0000
  O   O33       1.0  0.64736  0.60371  0.17427  1.0000
  O   O34       1.0  0.57859  0.71144  0.26139  1.0000
  O   O35       1.0  0.67394  0.64293  0.26129  1.0000
  O   O36       1.0  0.55021  0.67395  0.17207  1.0000
  C   C53       1.0  0.45609  0.35907  0.34588  1.0000
  C   C54       1.0  0.38775  0.40813  0.34865  1.0000
  C   C55       1.0  0.38967  0.37542  0.28920  1.0000
  C   C56       1.0  0.42373  0.35092  0.28772  1.0000
  N   N19       1.0  0.35800  0.37001  0.22856  1.0000
  N   N20       1.0  0.42413  0.32057  0.22278  1.0000
  O   O37       1.0  0.34137  0.33720  0.23887  1.0000
  O   O38       1.0  0.42468  0.28708  0.25843  1.0000
  O   O39       1.0  0.36817  0.37408  0.14801  1.0000
  O   O40       1.0  0.45123  0.32449  0.16632  1.0000
  C   C57       1.0  0.12770  0.42388  0.31770  1.0000
  N   N21       1.0  0.09841  0.45111  0.31573  1.0000
  C   C58       1.0  0.05964  0.44154  0.32141  1.0000
  N   N22       1.0  0.05010  0.40274  0.33099  1.0000
  C   C59       1.0  0.07815  0.37438  0.33288  1.0000
  N   N23       1.0  0.11640  0.38547  0.32613  1.0000
  C   C60       1.0  0.87433  0.57789  0.33556  1.0000
  N   N24       1.0  0.90351  0.55059  0.33480  1.0000
  C   C61       1.0  0.94209  0.56078  0.33684  1.0000
  N   N25       1.0  0.95158  0.59976  0.34005  1.0000
  C   C62       1.0  0.92338  0.62793  0.34242  1.0000
  N   N26       1.0  0.88513  0.61657  0.33966  1.0000
  C   C63       1.0  0.57964  0.12687  0.32794  1.0000
  N   N27       1.0  0.55217  0.09807  0.31920  1.0000
  C   C64       1.0  0.56108  0.05901  0.32252  1.0000
  N   N28       1.0  0.59960  0.04960  0.33611  1.0000
  C   C65       1.0  0.62819  0.07755  0.34637  1.0000
  N   N29       1.0  0.61739  0.11597  0.34152  1.0000
  C   C66       1.0  0.42339  0.87231  0.33717  1.0000
  N   N30       1.0  0.45051  0.90152  0.32872  1.0000
  C   C67       1.0  0.44037  0.94027  0.33040  1.0000
  N   N31       1.0  0.40158  0.94897  0.34065  1.0000
  C   C68       1.0  0.37332  0.92067  0.34997  1.0000
  N   N32       1.0  0.38522  0.88252  0.34724  1.0000
  C   C69       1.0  0.99797  0.15713  0.34103  1.0000
  N   N33       1.0  0.00583  0.19645  0.34754  1.0000
  C   C70       1.0  0.04345  0.21043  0.34848  1.0000
  N   N34       1.0  0.07366  0.18444  0.34135  1.0000
  C   C71       1.0  0.06698  0.14498  0.33534  1.0000
  N   N35       1.0  0.02911  0.13248  0.33505  1.0000
  C   C72       1.0  0.00405  0.84494  0.34069  1.0000
  N   N36       1.0  0.99622  0.80563  0.34742  1.0000
  C   C73       1.0  0.95860  0.79173  0.35021  1.0000
  N   N37       1.0  0.92833  0.81773  0.34496  1.0000
  C   C74       1.0  0.93501  0.85717  0.33870  1.0000
  N   N38       1.0  0.97287  0.86961  0.33652  1.0000
  C   C75       1.0  0.84321  0.99519  0.34049  1.0000
  N   N39       1.0  0.80460  0.00427  0.34957  1.0000
  C   C76       1.0  0.79215  0.04235  0.35699  1.0000
  N   N40       1.0  0.81971  0.07176  0.35387  1.0000
  C   C77       1.0  0.85867  0.06395  0.34401  1.0000
  N   N41       1.0  0.86917  0.02555  0.33778  1.0000
  C   C78       1.0  0.15902  0.00708  0.33272  1.0000
  N   N42       1.0  0.19753  0.99766  0.34287  1.0000
  C   C79       1.0  0.20966  0.95947  0.35068  1.0000
  N   N43       1.0  0.18180  0.93038  0.34730  1.0000
  C   C80       1.0  0.14300  0.93844  0.33654  1.0000
  N   N44       1.0  0.13284  0.97691  0.32992  1.0000
  C   C81       1.0  0.50906  0.65724  0.34481  1.0000
  N   N45       1.0  0.50119  0.69645  0.33642  1.0000
  C   C82       1.0  0.46352  0.70981  0.33085  1.0000
  N   N46       1.0  0.43341  0.68332  0.33447  1.0000
  C   C83       1.0  0.44026  0.64409  0.34203  1.0000
  N   N47       1.0  0.47800  0.63204  0.34721  1.0000
  C   C84       1.0  0.49417  0.34193  0.33764  1.0000
  N   N48       1.0  0.50211  0.30277  0.32862  1.0000
  C   C85       1.0  0.53982  0.28942  0.32426  1.0000
  N   N49       1.0  0.56995  0.31581  0.33028  1.0000
  C   C86       1.0  0.56315  0.35503  0.33834  1.0000
  N   N50       1.0  0.52533  0.36693  0.34201  1.0000
  C   C87       1.0  0.65687  0.49249  0.34611  1.0000
  N   N51       1.0  0.69585  0.50031  0.33809  1.0000
  C   C88       1.0  0.71031  0.53789  0.33566  1.0000
  N   N52       1.0  0.68388  0.56794  0.34191  1.0000
  C   C89       1.0  0.64465  0.56152  0.34992  1.0000
  N   N53       1.0  0.63218  0.52355  0.35183  1.0000
  C   C90       1.0  0.34601  0.50697  0.33684  1.0000
  N   N54       1.0  0.30714  0.49877  0.32729  1.0000
  C   C91       1.0  0.29304  0.46097  0.32471  1.0000
  N   N55       1.0  0.31961  0.43112  0.33224  1.0000
  C   C92       1.0  0.35872  0.43806  0.34234  1.0000
  N   N56       1.0  0.37088  0.47616  0.34433  1.0000
  C   C93       1.0  0.97205  0.50011  0.39171  1.0000
  C   C94       1.0  0.00106  0.47088  0.38772  1.0000
  H   H17       1.0  0.00104  0.44943  0.43607  1.0000
  H   H18       1.0  0.95188  0.49895  0.44263  1.0000
  C   C95       1.0  0.50652  0.96440  0.36426  1.0000
  C   C96       1.0  0.53607  0.99332  0.36179  1.0000
  H   H19       1.0  0.56147  0.98784  0.39617  1.0000
  H   H20       1.0  0.51180  0.93922  0.40010  1.0000
  C   C97       1.0  0.05127  0.25151  0.34898  1.0000
  C   C98       1.0  0.06831  0.33392  0.34068  1.0000
  C   C99       1.0  0.05555  0.31658  0.42283  1.0000
  C   C100      1.0  0.04732  0.27544  0.42709  1.0000
  N   N57       1.0  0.05144  0.33843  0.50351  1.0000
  N   N58       1.0  0.03667  0.26000  0.51214  1.0000
  O   O41       1.0  0.08305  0.35427  0.52808  1.0000
  O   O42       1.0  0.05953  0.23350  0.53875  1.0000
  O   O43       1.0  0.02507  0.36401  0.49830  1.0000
  O   O44       1.0  0.00207  0.24748  0.51328  1.0000
  C   C101      1.0  0.95075  0.75070  0.35219  1.0000
  C   C102      1.0  0.93328  0.66841  0.34774  1.0000
  C   C103      1.0  0.94597  0.68642  0.42918  1.0000
  C   C104      1.0  0.95448  0.72752  0.43148  1.0000
  N   N59       1.0  0.94981  0.66532  0.51096  1.0000
  N   N60       1.0  0.96533  0.74365  0.51573  1.0000
  O   O45       1.0  0.91803  0.65002  0.53618  1.0000
  O   O46       1.0  0.94259  0.77043  0.54136  1.0000
  O   O47       1.0  0.97594  0.63942  0.50719  1.0000
  O   O48       1.0  0.99998  0.75607  0.51594  1.0000
  C   C105      1.0  0.75116  0.05076  0.36166  1.0000
  C   C106      1.0  0.66857  0.06778  0.35732  1.0000
  C   C107      1.0  0.69350  0.08619  0.42210  1.0000
  C   C108      1.0  0.73437  0.07762  0.42438  1.0000
  N   N61       1.0  0.67964  0.11278  0.48843  1.0000
  N   N62       1.0  0.75641  0.09696  0.49208  1.0000
  O   O49       1.0  0.67241  0.14649  0.45818  1.0000
  O   O50       1.0  0.77703  0.07443  0.53933  1.0000
  O   O51       1.0  0.65136  0.09973  0.53383  1.0000
  O   O52       1.0  0.77631  0.12485  0.46090  1.0000
  C   C109      1.0  0.25045  0.95003  0.35777  1.0000
  C   C110      1.0  0.33257  0.93018  0.35729  1.0000
  C   C111      1.0  0.30540  0.90868  0.41181  1.0000
  C   C112      1.0  0.26470  0.91865  0.41194  1.0000
  N   N63       1.0  0.31663  0.87796  0.47093  1.0000
  N   N64       1.0  0.23727  0.89852  0.46732  1.0000
  O   O53       1.0  0.32398  0.84606  0.43184  1.0000
  O   O54       1.0  0.23541  0.86237  0.44956  1.0000
  O   O55       1.0  0.34343  0.88730  0.52490  1.0000
  O   O56       1.0  0.24427  0.90317  0.54945  1.0000
  C   C113      1.0  0.43392  0.76670  0.40176  1.0000
  C   C114      1.0  0.42353  0.80668  0.40338  1.0000
  H   H21       1.0  0.40883  0.81728  0.45819  1.0000
  H   H22       1.0  0.42625  0.74940  0.45538  1.0000
  C   C115      1.0  0.56839  0.23203  0.39526  1.0000
  C   C116      1.0  0.57873  0.19205  0.39608  1.0000
  H   H23       1.0  0.59250  0.18100  0.45171  1.0000
  H   H24       1.0  0.57524  0.24891  0.45014  1.0000
  C   C117      1.0  0.76580  0.58040  0.37491  1.0000
  C   C118      1.0  0.80577  0.59035  0.37516  1.0000
  H   H25       1.0  0.81424  0.61504  0.40979  1.0000
  H   H26       1.0  0.74714  0.59843  0.40950  1.0000
  C   C119      1.0  0.23647  0.41817  0.35844  1.0000
  C   C120      1.0  0.19615  0.40943  0.35709  1.0000
  H   H27       1.0  0.18703  0.38448  0.38979  1.0000
  H   H28       1.0  0.25454  0.39925  0.39218  1.0000
  C   C121      1.0  0.14379  0.04605  0.32635  1.0000
  C   C122      1.0  0.09681  0.11594  0.32804  1.0000
  C   C123      1.0  0.12760  0.11105  0.39196  1.0000
  C   C124      1.0  0.15096  0.07623  0.39117  1.0000
  N   N65       1.0  0.13478  0.13829  0.46241  1.0000
  N   N66       1.0  0.17902  0.07246  0.46091  1.0000
  O   O57       1.0  0.10586  0.14266  0.51370  1.0000
  O   O58       1.0  0.21347  0.07104  0.43140  1.0000
  O   O59       1.0  0.14626  0.17116  0.43367  1.0000
  O   O60       1.0  0.17240  0.04366  0.51183  1.0000
  C   C125      1.0  0.85853  0.95632  0.33364  1.0000
  C   C126      1.0  0.90525  0.88634  0.33294  1.0000
  C   C127      1.0  0.87506  0.89127  0.39832  1.0000
  C   C128      1.0  0.85177  0.92612  0.39864  1.0000
  N   N67       1.0  0.86841  0.86400  0.46897  1.0000
  N   N68       1.0  0.82432  0.92998  0.46963  1.0000
  O   O61       1.0  0.89776  0.85956  0.51895  1.0000
  O   O62       1.0  0.78963  0.93146  0.44164  1.0000
  O   O63       1.0  0.85662  0.83118  0.44068  1.0000
  O   O64       1.0  0.83140  0.95882  0.52010  1.0000
  C   C129      1.0  0.95962  0.14001  0.33709  1.0000
  C   C130      1.0  0.88923  0.09285  0.33818  1.0000
  C   C131      1.0  0.89379  0.12466  0.39954  1.0000
  C   C132      1.0  0.92882  0.14813  0.39925  1.0000
  N   N69       1.0  0.86363  0.13042  0.46360  1.0000
  N   N70       1.0  0.93188  0.17744  0.46647  1.0000
  O   O65       1.0  0.84964  0.16457  0.45908  1.0000
  O   O66       1.0  0.93269  0.21156  0.43401  1.0000
  O   O67       1.0  0.87506  0.12389  0.54237  1.0000
  O   O68       1.0  0.96015  0.17204  0.51908  1.0000
  C   C133      1.0  0.04231  0.86214  0.33460  1.0000
  C   C134      1.0  0.11241  0.90957  0.33213  1.0000
  C   C135      1.0  0.10903  0.87717  0.39228  1.0000
  C   C136      1.0  0.07407  0.85359  0.39389  1.0000
  N   N71       1.0  0.14036  0.87090  0.45315  1.0000
  N   N72       1.0  0.07208  0.82386  0.46036  1.0000
  O   O69       1.0  0.15459  0.83700  0.44496  1.0000
  O   O70       1.0  0.07038  0.78991  0.42716  1.0000
  O   O71       1.0  0.13035  0.87633  0.53335  1.0000
  O   O72       1.0  0.04483  0.82919  0.51571  1.0000
  C   C137      1.0  0.38699  0.55413  0.41475  1.0000
  C   C138      1.0  0.41062  0.58800  0.41605  1.0000
  H   H29       1.0  0.42935  0.59195  0.46915  1.0000
  H   H30       1.0  0.38946  0.53465  0.46699  1.0000
  C   C139      1.0  0.61199  0.44653  0.41659  1.0000
  C   C140      1.0  0.58882  0.41242  0.41460  1.0000
  H   H31       1.0  0.56740  0.40934  0.46239  1.0000
  H   H32       1.0  0.60652  0.46692  0.46572  1.0000
  C   C141      1.0  0.55186  0.61010  0.41714  1.0000
  C   C142      1.0  0.58526  0.58632  0.41834  1.0000
  H   H33       1.0  0.58611  0.56365  0.46375  1.0000
  H   H34       1.0  0.52988  0.60363  0.46179  1.0000
  C   C143      1.0  0.45190  0.38989  0.40907  1.0000
  C   C144      1.0  0.41872  0.41395  0.41014  1.0000
  H   H35       1.0  0.41827  0.43705  0.45442  1.0000
  H   H36       1.0  0.47414  0.39665  0.45281  1.0000
