data_image0
_chemical_formula_structural       CNC2NC4NC18H14C2NC16H12C3NC2NC5NC4NC18H14CNC16H12C11H11CNCNC4NC16H13NCHNCHNCHNCHNCHNCHNCHNCHNCHNCHNCHNCHC7NC12H12C2NC3NC3NC18H14C12H12C3NC3NC3NC18H14C3NC3NC2NC5NC20H15C8NC14H13C2NC2O2CH3C2NC2O2CH3C2NC2O2CH3C2NC2O2CH3C2NC2O2CH3C2NC2O2CH3C2NC2O2CH3C2NC2O2CH3C2NC2O2CH3C2NC2O2CH3C2NC2O2CH3C2NC2O2CH3
_chemical_formula_sum              "C336 N48 H204 O24"
_cell_length_a       56.8801
_cell_length_b       56.88
_cell_length_c       14.9813
_cell_angle_alpha    90.0018
_cell_angle_beta     89.9652
_cell_angle_gamma    120

_space_group_name_H-M_alt    "P 1"
_space_group_IT_number       1

loop_
  _space_group_symop_operation_xyz
  'x, y, z'

loop_
  _atom_site_type_symbol
  _atom_site_label
  _atom_site_symmetry_multiplicity
  _atom_site_fract_x
  _atom_site_fract_y
  _atom_site_fract_z
  _atom_site_occupancy
  C   C1        1.0  0.28744  0.53015  0.31256  1.0000
  N   N1        1.0  0.27865  0.48864  0.34048  1.0000
  C   C2        1.0  0.30595  0.50359  0.33039  1.0000
  C   C3        1.0  0.32576  0.49553  0.34032  1.0000
  N   N2        1.0  0.29518  0.44562  0.33850  1.0000
  C   C4        1.0  0.29686  0.42287  0.34751  1.0000
  C   C5        1.0  0.32414  0.43153  0.36481  1.0000
  C   C6        1.0  0.33826  0.45954  0.36479  1.0000
  C   C7        1.0  0.27557  0.39557  0.33764  1.0000
  N   N3        1.0  0.23558  0.40295  0.33811  1.0000
  C   C8        1.0  0.20826  0.38808  0.32810  1.0000
  C   C9        1.0  0.22679  0.36156  0.30830  1.0000
  C   C10       1.0  0.21745  0.46892  0.35094  1.0000
  C   C11       1.0  0.23882  0.49621  0.34399  1.0000
  C   C12       1.0  0.23222  0.51729  0.34925  1.0000
  C   C13       1.0  0.21920  0.52232  0.27763  1.0000
  C   C14       1.0  0.21474  0.54452  0.28044  1.0000
  C   C15       1.0  0.22313  0.56225  0.35479  1.0000
  C   C16       1.0  0.14549  0.37116  0.25570  1.0000
  C   C17       1.0  0.11732  0.35302  0.25498  1.0000
  C   C18       1.0  0.28299  0.37501  0.33516  1.0000
  C   C19       1.0  0.30381  0.33857  0.34038  1.0000
  C   C20       1.0  0.30890  0.35599  0.26642  1.0000
  C   C21       1.0  0.29859  0.37387  0.26362  1.0000
  C   C22       1.0  0.35352  0.51631  0.34207  1.0000
  C   C23       1.0  0.36904  0.52443  0.26287  1.0000
  C   C24       1.0  0.39548  0.54702  0.26299  1.0000
  C   C25       1.0  0.40718  0.56208  0.34203  1.0000
  H   H1        1.0  0.40600  0.55242  0.20413  1.0000
  H   H2        1.0  0.36088  0.51451  0.20408  1.0000
  H   H3        1.0  0.28581  0.54702  0.30191  1.0000
  H   H4        1.0  0.26937  0.47011  0.36113  1.0000
  H   H5        1.0  0.24488  0.42140  0.35941  1.0000
  H   H6        1.0  0.35868  0.47136  0.37511  1.0000
  H   H7        1.0  0.33273  0.41971  0.37534  1.0000
  H   H8        1.0  0.30362  0.38697  0.21087  1.0000
  H   H9        1.0  0.32131  0.35682  0.21554  1.0000
  H   H10       1.0  0.22845  0.34475  0.29666  1.0000
  H   H11       1.0  0.15479  0.38155  0.19857  1.0000
  H   H12       1.0  0.10705  0.35116  0.19705  1.0000
  H   H13       1.0  0.20556  0.54782  0.22697  1.0000
  H   H14       1.0  0.21346  0.51024  0.22204  1.0000
  C   C26       1.0  0.53886  0.75771  0.31048  1.0000
  C   C27       1.0  0.56538  0.80274  0.32902  1.0000
  N   N4        1.0  0.62327  0.84990  0.33849  1.0000
  C   C28       1.0  0.64601  0.87432  0.34773  1.0000
  C   C29       1.0  0.63734  0.89292  0.36541  1.0000
  C   C30       1.0  0.60932  0.87901  0.36548  1.0000
  C   C31       1.0  0.67331  0.88034  0.33769  1.0000
  C   C32       1.0  0.68083  0.82053  0.32844  1.0000
  C   C33       1.0  0.70734  0.86557  0.30853  1.0000
  C   C34       1.0  0.59996  0.74890  0.35088  1.0000
  C   C35       1.0  0.54661  0.69721  0.27777  1.0000
  C   C36       1.0  0.52440  0.67056  0.28073  1.0000
  C   C37       1.0  0.69779  0.77472  0.25605  1.0000
  C   C38       1.0  0.71593  0.76469  0.25536  1.0000
  C   C39       1.0  0.69386  0.90833  0.33517  1.0000
  C   C40       1.0  0.71282  0.95323  0.26635  1.0000
  C   C41       1.0  0.69496  0.92504  0.26363  1.0000
  C   C42       1.0  0.54451  0.84499  0.26290  1.0000
  C   C43       1.0  0.52192  0.84885  0.26311  1.0000
  H   H15       1.0  0.51657  0.85405  0.20435  1.0000
  H   H16       1.0  0.55450  0.84687  0.20415  1.0000
  H   H17       1.0  0.52195  0.73918  0.30059  1.0000
  H   H18       1.0  0.59750  0.88760  0.37593  1.0000
  H   H19       1.0  0.64916  0.91332  0.37610  1.0000
  H   H20       1.0  0.68183  0.91696  0.21100  1.0000
  H   H21       1.0  0.71193  0.96481  0.21561  1.0000
  H   H22       1.0  0.72417  0.88405  0.29702  1.0000
  H   H23       1.0  0.68749  0.77371  0.19883  1.0000
  H   H24       1.0  0.71786  0.75633  0.19738  1.0000
  H   H25       1.0  0.52115  0.65802  0.22748  1.0000
  H   H26       1.0  0.55875  0.70348  0.22228  1.0000
  C   C44       1.0  0.28686  0.75728  0.31077  1.0000
  C   C45       1.0  0.31118  0.78145  0.31148  1.0000
  C   C46       1.0  0.30580  0.80231  0.33139  1.0000
  N   N5        1.0  0.27845  0.79024  0.33945  1.0000
  C   C47       1.0  0.26612  0.76294  0.32943  1.0000
  C   C48       1.0  0.23827  0.74312  0.33978  1.0000
  N   N6        1.0  0.21894  0.77371  0.33821  1.0000
  C   C49       1.0  0.19452  0.77204  0.34730  1.0000
  C   C50       1.0  0.17588  0.74474  0.36447  1.0000
  C   C51       1.0  0.18978  0.73062  0.36448  1.0000
  C   C52       1.0  0.18852  0.79333  0.33729  1.0000
  C   C53       1.0  0.20856  0.82120  0.32807  1.0000
  N   N7        1.0  0.23586  0.83335  0.33839  1.0000
  C   C54       1.0  0.24834  0.86067  0.32828  1.0000
  C   C55       1.0  0.22766  0.86636  0.30915  1.0000
  C   C56       1.0  0.20329  0.84216  0.30870  1.0000
  C   C57       1.0  0.27628  0.88040  0.33761  1.0000
  N   N8        1.0  0.29559  0.84973  0.33964  1.0000
  C   C58       1.0  0.31998  0.85142  0.35038  1.0000
  C   C59       1.0  0.32586  0.83002  0.34359  1.0000
  C   C60       1.0  0.35352  0.83658  0.34911  1.0000
  C   C61       1.0  0.37167  0.84962  0.27764  1.0000
  C   C62       1.0  0.39830  0.85400  0.28069  1.0000
  C   C63       1.0  0.40753  0.84553  0.35512  1.0000
  C   C64       1.0  0.28391  0.90836  0.33498  1.0000
  C   C65       1.0  0.29422  0.92346  0.25559  1.0000
  C   C66       1.0  0.30421  0.95162  0.25491  1.0000
  C   C67       1.0  0.30444  0.96563  0.33352  1.0000
  C   C68       1.0  0.16054  0.78590  0.33474  1.0000
  C   C69       1.0  0.10328  0.76499  0.33990  1.0000
  C   C70       1.0  0.11565  0.75999  0.26587  1.0000
  C   C71       1.0  0.14385  0.77033  0.26315  1.0000
  C   C72       1.0  0.23129  0.71536  0.34151  1.0000
  C   C73       1.0  0.22399  0.69990  0.26227  1.0000
  C   C74       1.0  0.22014  0.67345  0.26241  1.0000
  C   C75       1.0  0.22337  0.66169  0.34154  1.0000
  H   H27       1.0  0.21509  0.66297  0.20353  1.0000
  H   H28       1.0  0.22232  0.70810  0.20343  1.0000
  H   H29       1.0  0.32971  0.78307  0.30139  1.0000
  H   H30       1.0  0.26928  0.79950  0.36100  1.0000
  H   H31       1.0  0.24508  0.82396  0.35823  1.0000
  H   H32       1.0  0.18116  0.71019  0.37465  1.0000
  H   H33       1.0  0.15547  0.73615  0.37490  1.0000
  H   H34       1.0  0.15195  0.76532  0.21042  1.0000
  H   H35       1.0  0.10409  0.74754  0.21507  1.0000
  H   H36       1.0  0.18482  0.84050  0.29708  1.0000
  H   H37       1.0  0.29530  0.91418  0.19841  1.0000
  H   H38       1.0  0.31267  0.96193  0.19702  1.0000
  H   H39       1.0  0.41084  0.86320  0.22732  1.0000
  H   H40       1.0  0.36541  0.85541  0.22198  1.0000
  C   C76       1.0  0.78563  0.54256  0.33082  1.0000
  N   N9        1.0  0.79641  0.60054  0.33896  1.0000
  C   C77       1.0  0.79473  0.62330  0.34781  1.0000
  C   C78       1.0  0.76743  0.61464  0.36487  1.0000
  C   C79       1.0  0.75331  0.58662  0.36491  1.0000
  C   C80       1.0  0.81603  0.65059  0.33793  1.0000
  C   C81       1.0  0.88338  0.65810  0.32882  1.0000
  C   C82       1.0  0.86487  0.68466  0.30949  1.0000
  C   C83       1.0  0.87414  0.57720  0.35092  1.0000
  C   C84       1.0  0.87230  0.52373  0.27786  1.0000
  C   C85       1.0  0.87670  0.50150  0.28069  1.0000
  C   C86       1.0  0.94611  0.67507  0.25586  1.0000
  C   C87       1.0  0.97429  0.69322  0.25508  1.0000
  C   C88       1.0  0.80862  0.67115  0.33538  1.0000
  C   C89       1.0  0.78275  0.69016  0.26644  1.0000
  C   C90       1.0  0.79313  0.67234  0.26363  1.0000
  C   C91       1.0  0.72261  0.52167  0.26318  1.0000
  C   C92       1.0  0.69616  0.49910  0.26334  1.0000
  H   H41       1.0  0.68570  0.49366  0.20443  1.0000
  H   H42       1.0  0.73083  0.53154  0.20433  1.0000
  H   H43       1.0  0.80573  0.49907  0.30306  1.0000
  H   H44       1.0  0.73287  0.57481  0.37505  1.0000
  H   H45       1.0  0.75883  0.62646  0.37515  1.0000
  H   H46       1.0  0.78812  0.65924  0.21093  1.0000
  H   H47       1.0  0.77036  0.68934  0.21554  1.0000
  H   H48       1.0  0.86323  0.70148  0.29796  1.0000
  H   H49       1.0  0.93682  0.66472  0.19871  1.0000
  H   H50       1.0  0.98456  0.69511  0.19707  1.0000
  H   H51       1.0  0.88583  0.49816  0.22714  1.0000
  H   H52       1.0  0.87798  0.53576  0.22215  1.0000
  C   C93       1.0  0.44559  0.17182  0.34817  1.0000
  C   C94       1.0  0.45425  0.15319  0.36549  1.0000
  C   C95       1.0  0.48226  0.16709  0.36556  1.0000
  C   C96       1.0  0.54502  0.34893  0.27861  1.0000
  C   C97       1.0  0.56722  0.37559  0.28142  1.0000
  C   C98       1.0  0.39387  0.27146  0.25632  1.0000
  C   C99       1.0  0.37572  0.28148  0.25554  1.0000
  C   C100      1.0  0.37882  0.09296  0.26658  1.0000
  C   C101      1.0  0.39667  0.12115  0.26392  1.0000
  C   C102      1.0  0.54714  0.20121  0.26370  1.0000
  C   C103      1.0  0.56973  0.19735  0.26376  1.0000
  H   H53       1.0  0.57512  0.19224  0.20489  1.0000
  H   H54       1.0  0.53721  0.19944  0.20494  1.0000
  H   H55       1.0  0.56973  0.30704  0.30293  1.0000
  H   H56       1.0  0.49408  0.15848  0.37591  1.0000
  H   H57       1.0  0.40981  0.12927  0.21126  1.0000
  H   H58       1.0  0.37970  0.08141  0.21569  1.0000
  H   H59       1.0  0.36749  0.16212  0.29700  1.0000
  H   H60       1.0  0.40427  0.27256  0.19921  1.0000
  H   H61       1.0  0.37387  0.28989  0.19757  1.0000
  H   H62       1.0  0.57052  0.38808  0.22795  1.0000
  H   H63       1.0  0.53295  0.34260  0.22303  1.0000
  C   C104      1.0  0.78042  0.26464  0.31067  1.0000
  N   N10       1.0  0.81314  0.25585  0.33895  1.0000
  C   C105      1.0  0.82546  0.28315  0.32902  1.0000
  N   N11       1.0  0.87263  0.27242  0.33847  1.0000
  C   C106      1.0  0.89705  0.27411  0.34769  1.0000
  C   C107      1.0  0.91566  0.30138  0.36527  1.0000
  C   C108      1.0  0.90174  0.31549  0.36530  1.0000
  C   C109      1.0  0.90308  0.25283  0.33771  1.0000
  N   N12       1.0  0.85572  0.21282  0.33853  1.0000
  C   C110      1.0  0.84326  0.18550  0.32846  1.0000
  C   C111      1.0  0.88831  0.20403  0.30854  1.0000
  C   C112      1.0  0.77163  0.19474  0.35100  1.0000
  C   C113      1.0  0.76573  0.21612  0.34383  1.0000
  C   C114      1.0  0.71992  0.19639  0.27807  1.0000
  C   C115      1.0  0.69327  0.19197  0.28112  1.0000
  C   C116      1.0  0.68403  0.20051  0.35538  1.0000
  C   C117      1.0  0.79742  0.12275  0.25601  1.0000
  C   C118      1.0  0.78738  0.09457  0.25528  1.0000
  C   C119      1.0  0.93106  0.26027  0.33517  1.0000
  C   C120      1.0  0.98832  0.28111  0.34019  1.0000
  C   C121      1.0  0.97598  0.28619  0.26630  1.0000
  C   C122      1.0  0.94778  0.27588  0.26362  1.0000
  C   C123      1.0  0.86024  0.33073  0.34179  1.0000
  C   C124      1.0  0.86754  0.34622  0.26255  1.0000
  C   C125      1.0  0.87139  0.37266  0.26275  1.0000
  H   H64       1.0  0.87646  0.38317  0.20388  1.0000
  H   H65       1.0  0.86928  0.33805  0.20372  1.0000
  H   H66       1.0  0.76190  0.26303  0.30087  1.0000
  H   H67       1.0  0.82228  0.24670  0.36181  1.0000
  H   H68       1.0  0.91033  0.33590  0.37567  1.0000
  H   H69       1.0  0.93606  0.30997  0.37592  1.0000
  H   H70       1.0  0.93971  0.28095  0.21100  1.0000
  H   H71       1.0  0.98756  0.29867  0.21553  1.0000
  H   H72       1.0  0.90678  0.20569  0.29702  1.0000
  H   H73       1.0  0.79639  0.13205  0.19883  1.0000
  H   H74       1.0  0.77901  0.08430  0.19732  1.0000
  H   H75       1.0  0.68072  0.18268  0.22790  1.0000
  H   H76       1.0  0.72618  0.19054  0.22256  1.0000
  N   N13       1.0  0.22851  0.60122  0.27843  1.0000
  C   C126      1.0  0.22895  0.62512  0.26891  1.0000
  H   H77       1.0  0.23614  0.63563  0.21062  1.0000
  N   N14       1.0  0.46768  0.62765  0.27861  1.0000
  C   C127      1.0  0.44380  0.60417  0.26915  1.0000
  H   H78       1.0  0.43333  0.60080  0.21081  1.0000
  N   N15       1.0  0.44124  0.84029  0.27878  1.0000
  C   C128      1.0  0.46471  0.83988  0.26934  1.0000
  H   H79       1.0  0.46816  0.83290  0.21084  1.0000
  N   N16       1.0  0.86288  0.44480  0.27895  1.0000
  C   C129      1.0  0.86242  0.42089  0.26946  1.0000
  H   H80       1.0  0.85525  0.41039  0.21118  1.0000
  N   N17       1.0  0.62392  0.41851  0.27943  1.0000
  C   C130      1.0  0.64782  0.44197  0.26990  1.0000
  H   H81       1.0  0.65833  0.44529  0.21162  1.0000
  N   N18       1.0  0.65036  0.20577  0.27915  1.0000
  C   C131      1.0  0.62688  0.20617  0.26976  1.0000
  H   H82       1.0  0.62350  0.21328  0.21142  1.0000
  N   N19       1.0  0.03083  0.29545  0.26840  1.0000
  C   C132      1.0  0.05824  0.30867  0.26070  1.0000
  H   H83       1.0  0.06658  0.30852  0.20051  1.0000
  N   N20       1.0  0.77353  0.73581  0.26900  1.0000
  C   C133      1.0  0.76031  0.75000  0.26137  1.0000
  H   H84       1.0  0.76062  0.75865  0.20134  1.0000
  N   N21       1.0  0.33315  0.03811  0.26872  1.0000
  C   C134      1.0  0.31896  0.01070  0.26098  1.0000
  H   H85       1.0  0.31042  0.00239  0.20086  1.0000
  N   N22       1.0  0.06078  0.75075  0.26842  1.0000
  C   C135      1.0  0.03337  0.73754  0.26085  1.0000
  H   H86       1.0  0.02504  0.73778  0.20079  1.0000
  N   N23       1.0  0.31813  0.31037  0.26875  1.0000
  C   C136      1.0  0.33136  0.29619  0.26114  1.0000
  H   H87       1.0  0.33120  0.28769  0.20098  1.0000
  N   N24       1.0  0.75849  0.00809  0.26874  1.0000
  C   C137      1.0  0.77268  0.03550  0.26112  1.0000
  H   H88       1.0  0.78129  0.04385  0.20105  1.0000
  C   C138      1.0  0.31161  0.52999  0.31178  1.0000
  C   C139      1.0  0.26656  0.50389  0.33214  1.0000
  C   C140      1.0  0.31966  0.46824  0.34852  1.0000
  C   C141      1.0  0.24772  0.38777  0.32809  1.0000
  C   C142      1.0  0.20259  0.36174  0.30853  1.0000
  C   C143      1.0  0.18851  0.39625  0.33783  1.0000
  C   C144      1.0  0.19463  0.42354  0.34803  1.0000
  N   N25       1.0  0.21916  0.44623  0.34017  1.0000
  C   C145      1.0  0.19012  0.46028  0.36663  1.0000
  C   C146      1.0  0.17600  0.43226  0.36421  1.0000
  C   C147      1.0  0.23638  0.55720  0.42591  1.0000
  C   C148      1.0  0.24060  0.53488  0.42370  1.0000
  C   C149      1.0  0.16055  0.37591  0.33509  1.0000
  C   C150      1.0  0.10328  0.33917  0.33348  1.0000
  C   C151      1.0  0.11874  0.34392  0.41249  1.0000
  C   C152      1.0  0.14696  0.36192  0.41339  1.0000
  C   C153      1.0  0.27670  0.35677  0.40714  1.0000
  C   C154      1.0  0.28670  0.33859  0.40907  1.0000
  C   C155      1.0  0.36516  0.53070  0.42169  1.0000
  C   C156      1.0  0.39170  0.55310  0.42168  1.0000
  H   H89       1.0  0.39904  0.56359  0.48007  1.0000
  H   H90       1.0  0.35413  0.52548  0.47961  1.0000
  H   H91       1.0  0.33019  0.54674  0.30081  1.0000
  H   H92       1.0  0.26554  0.35721  0.46009  1.0000
  H   H93       1.0  0.28192  0.32584  0.46260  1.0000
  H   H94       1.0  0.18397  0.34507  0.29745  1.0000
  H   H95       1.0  0.18154  0.47211  0.37702  1.0000
  H   H96       1.0  0.15551  0.42047  0.37304  1.0000
  H   H97       1.0  0.15735  0.36541  0.47219  1.0000
  H   H98       1.0  0.10953  0.33453  0.47099  1.0000
  H   H99       1.0  0.25068  0.53209  0.47553  1.0000
  H   H100      1.0  0.24395  0.57025  0.47886  1.0000
  C   C157      1.0  0.53903  0.78203  0.30968  1.0000
  C   C158      1.0  0.56507  0.76308  0.33087  1.0000
  N   N26       1.0  0.58036  0.79042  0.33893  1.0000
  C   C159      1.0  0.57337  0.83055  0.34011  1.0000
  C   C160      1.0  0.60064  0.85174  0.34884  1.0000
  C   C161      1.0  0.68113  0.86030  0.32828  1.0000
  N   N27       1.0  0.66597  0.83299  0.33849  1.0000
  C   C162      1.0  0.70718  0.84121  0.30904  1.0000
  C   C163      1.0  0.67264  0.79261  0.33813  1.0000
  C   C164      1.0  0.64533  0.77144  0.34818  1.0000
  N   N28       1.0  0.62266  0.77329  0.34002  1.0000
  C   C165      1.0  0.60857  0.73022  0.36706  1.0000
  C   C166      1.0  0.63659  0.74411  0.36476  1.0000
  C   C167      1.0  0.57269  0.74301  0.34367  1.0000
  C   C168      1.0  0.55158  0.71535  0.34909  1.0000
  C   C169      1.0  0.50659  0.66131  0.35495  1.0000
  C   C170      1.0  0.51157  0.67970  0.42573  1.0000
  C   C171      1.0  0.53392  0.70623  0.42343  1.0000
  C   C172      1.0  0.69296  0.78497  0.33548  1.0000
  C   C173      1.0  0.72967  0.76441  0.33396  1.0000
  C   C174      1.0  0.72483  0.77504  0.41302  1.0000
  C   C175      1.0  0.70683  0.78527  0.41389  1.0000
  C   C176      1.0  0.71210  0.92030  0.40709  1.0000
  C   C177      1.0  0.73024  0.94849  0.40898  1.0000
  C   C178      1.0  0.73022  0.96558  0.34030  1.0000
  C   C179      1.0  0.55258  0.83751  0.34199  1.0000
  C   C180      1.0  0.53811  0.83464  0.42158  1.0000
  C   C181      1.0  0.50679  0.84538  0.34213  1.0000
  C   C182      1.0  0.51570  0.83876  0.42166  1.0000
  H   H101      1.0  0.50516  0.83555  0.48004  1.0000
  H   H102      1.0  0.54329  0.82877  0.47941  1.0000
  H   H103      1.0  0.52224  0.78385  0.29947  1.0000
  H   H104      1.0  0.59864  0.79955  0.36187  1.0000
  H   H105      1.0  0.64743  0.82382  0.35909  1.0000
  H   H106      1.0  0.71168  0.90871  0.45999  1.0000
  H   H107      1.0  0.74299  0.95648  0.46246  1.0000
  H   H108      1.0  0.72386  0.83925  0.29794  1.0000
  H   H109      1.0  0.59672  0.70983  0.37779  1.0000
  H   H110      1.0  0.64838  0.73543  0.37399  1.0000
  H   H111      1.0  0.70328  0.79212  0.47271  1.0000
  H   H112      1.0  0.73412  0.77513  0.47160  1.0000
  H   H113      1.0  0.53664  0.71917  0.47497  1.0000
  H   H114      1.0  0.49847  0.67428  0.47858  1.0000
  C   C183      1.0  0.21708  0.74922  0.34828  1.0000
  C   C184      1.0  0.29745  0.87426  0.34748  1.0000
  C   C185      1.0  0.33867  0.87873  0.36616  1.0000
  C   C186      1.0  0.32479  0.89287  0.36379  1.0000
  C   C187      1.0  0.38913  0.83227  0.42608  1.0000
  C   C188      1.0  0.36262  0.82814  0.42369  1.0000
  C   C189      1.0  0.29375  0.95014  0.41253  1.0000
  C   C190      1.0  0.28351  0.92192  0.41335  1.0000
  C   C191      1.0  0.14853  0.79211  0.40677  1.0000
  C   C192      1.0  0.12034  0.78209  0.40863  1.0000
  C   C193      1.0  0.23392  0.70367  0.42122  1.0000
  C   C194      1.0  0.22980  0.67714  0.42121  1.0000
  H   H115      1.0  0.23281  0.66973  0.47971  1.0000
  H   H116      1.0  0.23964  0.71467  0.47919  1.0000
  H   H117      1.0  0.28504  0.73870  0.30009  1.0000
  H   H118      1.0  0.16010  0.80326  0.45972  1.0000
  H   H119      1.0  0.11232  0.78678  0.46224  1.0000
  H   H120      1.0  0.22962  0.88498  0.29798  1.0000
  H   H121      1.0  0.35907  0.88728  0.37686  1.0000
  H   H122      1.0  0.33348  0.91335  0.37286  1.0000
  H   H123      1.0  0.27664  0.91150  0.47216  1.0000
  H   H124      1.0  0.29361  0.95933  0.47110  1.0000
  H   H125      1.0  0.34968  0.81803  0.47538  1.0000
  H   H126      1.0  0.39452  0.82465  0.47912  1.0000
  C   C195      1.0  0.77996  0.51614  0.31254  1.0000
  C   C196      1.0  0.80411  0.51597  0.31333  1.0000
  C   C197      1.0  0.82500  0.54223  0.33275  1.0000
  N   N29       1.0  0.81293  0.55750  0.34083  1.0000
  C   C198      1.0  0.76582  0.55063  0.34075  1.0000
  C   C199      1.0  0.77192  0.57792  0.34891  1.0000
  C   C200      1.0  0.84390  0.65842  0.32877  1.0000
  N   N30       1.0  0.85605  0.64326  0.33901  1.0000
  C   C201      1.0  0.88907  0.68448  0.30988  1.0000
  C   C202      1.0  0.90310  0.64989  0.33815  1.0000
  C   C203      1.0  0.89697  0.62258  0.34808  1.0000
  N   N31       1.0  0.87244  0.59990  0.34039  1.0000
  C   C204      1.0  0.90148  0.58583  0.36632  1.0000
  C   C205      1.0  0.91560  0.61384  0.36396  1.0000
  C   C206      1.0  0.85274  0.54992  0.34434  1.0000
  C   C207      1.0  0.85933  0.52883  0.34960  1.0000
  C   C208      1.0  0.86836  0.48382  0.35520  1.0000
  C   C209      1.0  0.85518  0.48894  0.42643  1.0000
  C   C210      1.0  0.85101  0.51130  0.42425  1.0000
  C   C211      1.0  0.93106  0.67022  0.33539  1.0000
  C   C212      1.0  0.98833  0.70695  0.33366  1.0000
  C   C213      1.0  0.97287  0.70211  0.41279  1.0000
  C   C214      1.0  0.94466  0.68411  0.41376  1.0000
  C   C215      1.0  0.81479  0.68933  0.40746  1.0000
  C   C216      1.0  0.80476  0.70749  0.40933  1.0000
  C   C217      1.0  0.78772  0.70751  0.34051  1.0000
  C   C218      1.0  0.73805  0.52986  0.34247  1.0000
  C   C219      1.0  0.72633  0.51555  0.42221  1.0000
  C   C220      1.0  0.68438  0.48411  0.34249  1.0000
  C   C221      1.0  0.69980  0.49314  0.42219  1.0000
  H   H127      1.0  0.69238  0.48272  0.48071  1.0000
  H   H128      1.0  0.73732  0.52081  0.48019  1.0000
  H   H129      1.0  0.76136  0.49938  0.30192  1.0000
  H   H130      1.0  0.82222  0.57605  0.36126  1.0000
  H   H131      1.0  0.84666  0.62465  0.35876  1.0000
  H   H132      1.0  0.82586  0.68884  0.46053  1.0000
  H   H133      1.0  0.80942  0.72016  0.46299  1.0000
  H   H134      1.0  0.90770  0.70115  0.29877  1.0000
  H   H135      1.0  0.91004  0.57399  0.37678  1.0000
  H   H136      1.0  0.93609  0.62564  0.37277  1.0000
  H   H137      1.0  0.93427  0.68055  0.47264  1.0000
  H   H138      1.0  0.98209  0.71141  0.47134  1.0000
  H   H139      1.0  0.84097  0.51413  0.47615  1.0000
  H   H140      1.0  0.84765  0.47594  0.47956  1.0000
  C   C222      1.0  0.55271  0.26421  0.31276  1.0000
  C   C223      1.0  0.55287  0.28853  0.31356  1.0000
  C   C224      1.0  0.52660  0.28313  0.33312  1.0000
  N   N32       1.0  0.51135  0.25580  0.34144  1.0000
  C   C225      1.0  0.52632  0.24346  0.33134  1.0000
  C   C226      1.0  0.51825  0.21559  0.34121  1.0000
  C   C227      1.0  0.49096  0.19439  0.34934  1.0000
  N   N33       1.0  0.46834  0.19625  0.33926  1.0000
  C   C228      1.0  0.41830  0.16581  0.33819  1.0000
  C   C229      1.0  0.41049  0.18586  0.32864  1.0000
  N   N34       1.0  0.42566  0.21317  0.33878  1.0000
  C   C230      1.0  0.41079  0.22562  0.32874  1.0000
  C   C231      1.0  0.38447  0.20496  0.30903  1.0000
  C   C232      1.0  0.38430  0.18059  0.30874  1.0000
  C   C233      1.0  0.41895  0.25354  0.33856  1.0000
  C   C234      1.0  0.44624  0.27470  0.34886  1.0000
  N   N35       1.0  0.46893  0.27287  0.34104  1.0000
  C   C235      1.0  0.49161  0.29726  0.35189  1.0000
  C   C236      1.0  0.48297  0.31594  0.36758  1.0000
  C   C237      1.0  0.45496  0.30205  0.36509  1.0000
  C   C238      1.0  0.51890  0.30318  0.34498  1.0000
  C   C239      1.0  0.53998  0.33086  0.35025  1.0000
  C   C240      1.0  0.58494  0.38492  0.35578  1.0000
  C   C241      1.0  0.57987  0.36661  0.42692  1.0000
  C   C242      1.0  0.55756  0.34006  0.42471  1.0000
  C   C243      1.0  0.39862  0.26116  0.33576  1.0000
  C   C244      1.0  0.36186  0.28167  0.33401  1.0000
  C   C245      1.0  0.36660  0.27096  0.41306  1.0000
  C   C246      1.0  0.38461  0.26075  0.41404  1.0000
  C   C247      1.0  0.39775  0.13783  0.33552  1.0000
  C   C248      1.0  0.37946  0.12582  0.40738  1.0000
  C   C249      1.0  0.36130  0.09763  0.40917  1.0000
  C   C250      1.0  0.36137  0.08057  0.34045  1.0000
  C   C251      1.0  0.53904  0.20860  0.34291  1.0000
  C   C252      1.0  0.55344  0.21135  0.42250  1.0000
  C   C253      1.0  0.58481  0.20071  0.34276  1.0000
  C   C254      1.0  0.57584  0.20721  0.42243  1.0000
  H   H141      1.0  0.58635  0.21036  0.48079  1.0000
  H   H142      1.0  0.54823  0.21716  0.48043  1.0000
  H   H143      1.0  0.56946  0.26238  0.30178  1.0000
  H   H144      1.0  0.49282  0.24654  0.36207  1.0000
  H   H145      1.0  0.44411  0.22232  0.36017  1.0000
  H   H146      1.0  0.44242  0.13278  0.37595  1.0000
  H   H147      1.0  0.37986  0.13738  0.46037  1.0000
  H   H148      1.0  0.34854  0.08961  0.46267  1.0000
  H   H149      1.0  0.36780  0.20691  0.29790  1.0000
  H   H150      1.0  0.49480  0.33636  0.37800  1.0000
  H   H151      1.0  0.44315  0.31073  0.37389  1.0000
  H   H152      1.0  0.38809  0.25385  0.47286  1.0000
  H   H153      1.0  0.35721  0.27078  0.47154  1.0000
  H   H154      1.0  0.55476  0.32719  0.47654  1.0000
  H   H155      1.0  0.59291  0.37208  0.47988  1.0000
  C   C255      1.0  0.80475  0.28880  0.30980  1.0000
  C   C256      1.0  0.78580  0.24380  0.33099  1.0000
  C   C257      1.0  0.85328  0.30298  0.34001  1.0000
  C   C258      1.0  0.87446  0.29689  0.34875  1.0000
  C   C259      1.0  0.88304  0.22497  0.32831  1.0000
  C   C260      1.0  0.86394  0.17983  0.30904  1.0000
  C   C261      1.0  0.81533  0.16576  0.33815  1.0000
  C   C262      1.0  0.79417  0.17191  0.34823  1.0000
  N   N36       1.0  0.79602  0.19642  0.34009  1.0000
  C   C263      1.0  0.75295  0.16744  0.36718  1.0000
  C   C264      1.0  0.76684  0.15331  0.36483  1.0000
  C   C265      1.0  0.73807  0.20956  0.34935  1.0000
  C   C266      1.0  0.70244  0.21392  0.42611  1.0000
  C   C267      1.0  0.72896  0.21809  0.42373  1.0000
  C   C268      1.0  0.80770  0.13781  0.33543  1.0000
  C   C269      1.0  0.78713  0.08053  0.33382  1.0000
  C   C270      1.0  0.79780  0.09599  0.41287  1.0000
  C   C271      1.0  0.80802  0.12421  0.41378  1.0000
  C   C272      1.0  0.94303  0.25398  0.40706  1.0000
  C   C273      1.0  0.97121  0.26399  0.40889  1.0000
  C   C274      1.0  0.85756  0.34239  0.42150  1.0000
  C   C275      1.0  0.86812  0.38438  0.34190  1.0000
  C   C276      1.0  0.86168  0.36892  0.42156  1.0000
  H   H156      1.0  0.85861  0.37629  0.48005  1.0000
  H   H157      1.0  0.85181  0.33137  0.47946  1.0000
  H   H158      1.0  0.80656  0.30740  0.29963  1.0000
  H   H159      1.0  0.84655  0.22218  0.35914  1.0000
  H   H160      1.0  0.93143  0.24279  0.45995  1.0000
  H   H161      1.0  0.97919  0.25919  0.46232  1.0000
  H   H162      1.0  0.86199  0.16120  0.29791  1.0000
  H   H163      1.0  0.73255  0.15889  0.37795  1.0000
  H   H164      1.0  0.75816  0.13283  0.37407  1.0000
  H   H165      1.0  0.81490  0.13460  0.47260  1.0000
  H   H166      1.0  0.79791  0.08677  0.47141  1.0000
  H   H167      1.0  0.74191  0.22831  0.47522  1.0000
  H   H168      1.0  0.69703  0.22159  0.47898  1.0000
  C   C277      1.0  0.22056  0.58590  0.35403  1.0000
  C   C278      1.0  0.22145  0.63569  0.34185  1.0000
  N   N37       1.0  0.21339  0.62023  0.41712  1.0000
  C   C279      1.0  0.21239  0.59596  0.42751  1.0000
  C   C280      1.0  0.20234  0.58189  0.50646  1.0000
  O   O1        1.0  0.20720  0.59525  0.57507  1.0000
  O   O2        1.0  0.17697  0.56086  0.50098  1.0000
  C   C281      1.0  0.17261  0.53719  0.54968  1.0000
  H   H169      1.0  0.15155  0.52137  0.54011  1.0000
  H   H170      1.0  0.17600  0.54131  0.62119  1.0000
  H   H171      1.0  0.18559  0.52951  0.52516  1.0000
  C   C282      1.0  0.48294  0.63511  0.35431  1.0000
  C   C283      1.0  0.43317  0.58617  0.34227  1.0000
  N   N38       1.0  0.44858  0.59365  0.41763  1.0000
  C   C284      1.0  0.47283  0.61694  0.42797  1.0000
  C   C285      1.0  0.48685  0.62103  0.50700  1.0000
  O   O3        1.0  0.47345  0.61262  0.57560  1.0000
  O   O4        1.0  0.50786  0.61663  0.50183  1.0000
  C   C286      1.0  0.53153  0.63602  0.55027  1.0000
  H   H172      1.0  0.54733  0.63073  0.54101  1.0000
  H   H173      1.0  0.52741  0.63543  0.62176  1.0000
  H   H174      1.0  0.53925  0.65663  0.52527  1.0000
  C   C287      1.0  0.43372  0.84802  0.35455  1.0000
  C   C288      1.0  0.48270  0.84727  0.34242  1.0000
  N   N39       1.0  0.47516  0.85512  0.41787  1.0000
  C   C289      1.0  0.45183  0.85602  0.42825  1.0000
  C   C290      1.0  0.44767  0.86592  0.50743  1.0000
  O   O5        1.0  0.45547  0.86010  0.57565  1.0000
  O   O6        1.0  0.45276  0.89152  0.50197  1.0000
  C   C291      1.0  0.43360  0.89635  0.54970  1.0000
  H   H175      1.0  0.43942  0.91758  0.54052  1.0000
  H   H176      1.0  0.43384  0.89267  0.62123  1.0000
  H   H177      1.0  0.41301  0.88386  0.52401  1.0000
  C   C292      1.0  0.87086  0.46014  0.35449  1.0000
  C   C293      1.0  0.87002  0.41037  0.34223  1.0000
  N   N40       1.0  0.87813  0.42586  0.41741  1.0000
  C   C294      1.0  0.87909  0.45011  0.42787  1.0000
  C   C295      1.0  0.88929  0.46430  0.50661  1.0000
  O   O7        1.0  0.88410  0.45069  0.57482  1.0000
  O   O8        1.0  0.91443  0.48566  0.50134  1.0000
  C   C296      1.0  0.91850  0.50882  0.55246  1.0000
  H   H178      1.0  0.93939  0.52502  0.54252  1.0000
  H   H179      1.0  0.91549  0.50422  0.62380  1.0000
  H   H180      1.0  0.90509  0.51626  0.53038  1.0000
  C   C297      1.0  0.60858  0.41113  0.35502  1.0000
  C   C298      1.0  0.65838  0.46004  0.34281  1.0000
  N   N41       1.0  0.64290  0.45263  0.41807  1.0000
  C   C299      1.0  0.61863  0.42936  0.42847  1.0000
  C   C300      1.0  0.60455  0.42534  0.50741  1.0000
  O   O9        1.0  0.61790  0.43384  0.57602  1.0000
  O   O10       1.0  0.58350  0.42965  0.50188  1.0000
  C   C301      1.0  0.55984  0.41034  0.55064  1.0000
  H   H181      1.0  0.54400  0.41555  0.54100  1.0000
  H   H182      1.0  0.56396  0.41110  0.62216  1.0000
  H   H183      1.0  0.55218  0.38968  0.52623  1.0000
  C   C302      1.0  0.65783  0.19797  0.35483  1.0000
  C   C303      1.0  0.60889  0.19881  0.34293  1.0000
  N   N42       1.0  0.61639  0.19088  0.41827  1.0000
  C   C304      1.0  0.63968  0.18992  0.42854  1.0000
  C   C305      1.0  0.64378  0.17997  0.50757  1.0000
  O   O11       1.0  0.63539  0.18497  0.57619  1.0000
  O   O12       1.0  0.63939  0.15458  0.50243  1.0000
  C   C306      1.0  0.65877  0.15028  0.55084  1.0000
  H   H184      1.0  0.65349  0.12919  0.54160  1.0000
  H   H185      1.0  0.65819  0.15382  0.62233  1.0000
  H   H186      1.0  0.67939  0.16319  0.52581  1.0000
  C   C307      1.0  0.01720  0.29393  0.34491  1.0000
  C   C308      1.0  0.07438  0.32257  0.33536  1.0000
  N   N43       1.0  0.06068  0.32099  0.41169  1.0000
  C   C309      1.0  0.03319  0.30716  0.42136  1.0000
  C   C310      1.0  0.02265  0.30943  0.50180  1.0000
  O   O13       1.0  0.03194  0.30446  0.56816  1.0000
  O   O14       1.0  0.01967  0.33126  0.50744  1.0000
  C   C311      1.0  0.99477  0.32591  0.54991  1.0000
  H   H187      1.0  0.99425  0.34480  0.55138  1.0000
  H   H188      1.0  0.99362  0.31900  0.61873  1.0000
  H   H189      1.0  0.97703  0.31095  0.51281  1.0000
  C   C312      1.0  0.77483  0.72351  0.34532  1.0000
  C   C313      1.0  0.74622  0.75206  0.33586  1.0000
  N   N44       1.0  0.74762  0.73977  0.41200  1.0000
  C   C314      1.0  0.76141  0.72608  0.42162  1.0000
  C   C315      1.0  0.75896  0.71310  0.50174  1.0000
  O   O15       1.0  0.76381  0.72734  0.56822  1.0000
  O   O16       1.0  0.73754  0.68808  0.50839  1.0000
  C   C316      1.0  0.74344  0.66908  0.55207  1.0000
  H   H190      1.0  0.72482  0.64944  0.55397  1.0000
  H   H191      1.0  0.75023  0.67519  0.62080  1.0000
  H   H192      1.0  0.75871  0.66661  0.51564  1.0000
  C   C317      1.0  0.34534  0.05170  0.34516  1.0000
  C   C318      1.0  0.31680  0.99453  0.33549  1.0000
  N   N45       1.0  0.32899  0.00819  0.41174  1.0000
  C   C319      1.0  0.34270  0.03567  0.42142  1.0000
  C   C320      1.0  0.35550  0.04614  0.50171  1.0000
  O   O17       1.0  0.34168  0.03664  0.56894  1.0000
  O   O18       1.0  0.38053  0.04963  0.50766  1.0000
  C   C321      1.0  0.39978  0.07465  0.55010  1.0000
  H   H193      1.0  0.41936  0.07553  0.55169  1.0000
  H   H194      1.0  0.39390  0.07569  0.61888  1.0000
  H   H195      1.0  0.40228  0.09228  0.51294  1.0000
  C   C322      1.0  0.07440  0.75212  0.34475  1.0000
  C   C323      1.0  0.01723  0.72352  0.33544  1.0000
  N   N46       1.0  0.03093  0.72497  0.41158  1.0000
  C   C324      1.0  0.05841  0.73876  0.42114  1.0000
  C   C325      1.0  0.06890  0.73632  0.50126  1.0000
  O   O19       1.0  0.05940  0.74055  0.56868  1.0000
  O   O20       1.0  0.07241  0.71479  0.50680  1.0000
  C   C326      1.0  0.09744  0.72053  0.54913  1.0000
  H   H196      1.0  0.09834  0.70184  0.55037  1.0000
  H   H197      1.0  0.09846  0.72734  0.61802  1.0000
  H   H198      1.0  0.11506  0.73573  0.51208  1.0000
  C   C327      1.0  0.31662  0.32251  0.34520  1.0000
  C   C328      1.0  0.34526  0.29397  0.33582  1.0000
  N   N47       1.0  0.34368  0.30610  0.41208  1.0000
  C   C329      1.0  0.32985  0.31976  0.42168  1.0000
  C   C330      1.0  0.33213  0.33260  0.50205  1.0000
  O   O21       1.0  0.32716  0.31835  0.56847  1.0000
  O   O22       1.0  0.35397  0.35740  0.50759  1.0000
  C   C331      1.0  0.34863  0.37696  0.54994  1.0000
  H   H199      1.0  0.36752  0.39637  0.55133  1.0000
  H   H200      1.0  0.34171  0.37122  0.61877  1.0000
  H   H201      1.0  0.33367  0.37974  0.51279  1.0000
  C   C332      1.0  0.74623  0.99446  0.34510  1.0000
  C   C333      1.0  0.77478  0.05163  0.33568  1.0000
  N   N48       1.0  0.76255  0.03793  0.41188  1.0000
  C   C334      1.0  0.74886  0.01044  0.42148  1.0000
  C   C335      1.0  0.73593  0.99988  0.50168  1.0000
  O   O23       1.0  0.75022  0.00923  0.56805  1.0000
  O   O24       1.0  0.71093  0.99632  0.50863  1.0000
  C   C336      1.0  0.69193  0.97139  0.55221  1.0000
  H   H202      1.0  0.67230  0.97040  0.55440  1.0000
  H   H203      1.0  0.69807  0.97063  0.62083  1.0000
  H   H204      1.0  0.68941  0.95368  0.51552  1.0000
