data_image0
_chemical_formula_structural       C3NC3NC5NC5NC20H18N4CNCOCH3CHCNCOCH3CHC8H8NC2OCH3CHNC2OCH3CH
_chemical_formula_sum              "C60 N12 H42 O4"
_cell_length_a       25.6596
_cell_length_b       25.6574
_cell_length_c       14.6953
_cell_angle_alpha    90
_cell_angle_beta     90
_cell_angle_gamma    89.9701

_space_group_name_H-M_alt    "P 1"
_space_group_IT_number       1

loop_
  _space_group_symop_operation_xyz
  'x, y, z'

loop_
  _atom_site_type_symbol
  _atom_site_label
  _atom_site_symmetry_multiplicity
  _atom_site_fract_x
  _atom_site_fract_y
  _atom_site_fract_z
  _atom_site_occupancy
  C   C1        1.0  0.91181  0.14553  0.34416  1.0000
  C   C2        1.0  0.87376  0.10743  0.34429  1.0000
  C   C3        1.0  0.89814  0.05872  0.34239  1.0000
  N   N1        1.0  0.95003  0.06930  0.34143  1.0000
  C   C4        1.0  0.96054  0.12120  0.34231  1.0000
  C   C5        1.0  0.00934  0.14780  0.34116  1.0000
  C   C6        1.0  0.05870  0.12250  0.33794  1.0000
  N   N2        1.0  0.06901  0.07072  0.33614  1.0000
  C   C7        1.0  0.12079  0.06057  0.33298  1.0000
  C   C8        1.0  0.14528  0.10919  0.33239  1.0000
  C   C9        1.0  0.10718  0.14720  0.33579  1.0000
  C   C10       1.0  0.14623  0.01124  0.33025  1.0000
  C   C11       1.0  0.11961  0.96241  0.32961  1.0000
  N   N3        1.0  0.06770  0.95180  0.33044  1.0000
  C   C12       1.0  0.05715  0.89988  0.32993  1.0000
  C   C13       1.0  0.10590  0.87559  0.32807  1.0000
  C   C14       1.0  0.14395  0.91368  0.32852  1.0000
  C   C15       1.0  0.00835  0.87320  0.33075  1.0000
  C   C16       1.0  0.95898  0.89853  0.33366  1.0000
  N   N4        1.0  0.94874  0.95032  0.33566  1.0000
  C   C17       1.0  0.89697  0.96054  0.33909  1.0000
  C   C18       1.0  0.87238  0.91200  0.33928  1.0000
  C   C19       1.0  0.91045  0.87393  0.33630  1.0000
  C   C20       1.0  0.87162  0.00987  0.34186  1.0000
  C   C21       1.0  0.81572  0.01026  0.34326  1.0000
  C   C22       1.0  0.70398  0.01085  0.34561  1.0000
  C   C23       1.0  0.73198  0.01346  0.26258  1.0000
  C   C24       1.0  0.78694  0.01305  0.26139  1.0000
  C   C25       1.0  0.00882  0.81723  0.32983  1.0000
  C   C26       1.0  0.00920  0.70535  0.32855  1.0000
  C   C27       1.0  0.99842  0.73413  0.24872  1.0000
  C   C28       1.0  0.99841  0.78913  0.24906  1.0000
  C   C29       1.0  0.20220  0.01090  0.32936  1.0000
  C   C30       1.0  0.23026  0.00150  0.24815  1.0000
  C   C31       1.0  0.28526  0.00120  0.24779  1.0000
  C   C32       1.0  0.31409  0.01076  0.32801  1.0000
  C   C33       1.0  0.00887  0.20370  0.34244  1.0000
  C   C34       1.0  0.01096  0.23252  0.26055  1.0000
  C   C35       1.0  0.00890  0.31546  0.34489  1.0000
  C   C36       1.0  0.01110  0.28749  0.26179  1.0000
  H   H1        1.0  0.01358  0.30688  0.20121  1.0000
  H   H2        1.0  0.01279  0.21360  0.19931  1.0000
  H   H3        1.0  0.90438  0.18466  0.34502  1.0000
  H   H4        1.0  0.83462  0.11481  0.34543  1.0000
  H   H5        1.0  0.97651  0.04285  0.34050  1.0000
  H   H6        1.0  0.04122  0.97824  0.33094  1.0000
  H   H7        1.0  0.11431  0.18638  0.33600  1.0000
  H   H8        1.0  0.18439  0.11651  0.32961  1.0000
  H   H9        1.0  0.21074  0.99467  0.18860  1.0000
  H   H10       1.0  0.30428  0.99409  0.18782  1.0000
  H   H11       1.0  0.18307  0.90621  0.32810  1.0000
  H   H12       1.0  0.11341  0.83648  0.32710  1.0000
  H   H13       1.0  0.83324  0.90479  0.34194  1.0000
  H   H14       1.0  0.90323  0.83477  0.33662  1.0000
  H   H15       1.0  0.99053  0.80861  0.18986  1.0000
  H   H16       1.0  0.99050  0.71507  0.18910  1.0000
  H   H17       1.0  0.80589  0.01506  0.20019  1.0000
  H   H18       1.0  0.71261  0.01636  0.20203  1.0000
  N   N5        1.0  0.00776  0.65313  0.32278  1.0000
  N   N6        1.0  0.36631  0.00926  0.32222  1.0000
  N   N7        1.0  0.01026  0.36762  0.35125  1.0000
  N   N8        1.0  0.65181  0.01218  0.35186  1.0000
  C   C37       1.0  0.00508  0.45702  0.31377  1.0000
  N   N9        1.0  0.00771  0.54719  0.27077  1.0000
  C   C38       1.0  0.00299  0.49628  0.24584  1.0000
  O   O1        1.0  0.99507  0.48505  0.15585  1.0000
  C   C39       1.0  0.04286  0.47931  0.10571  1.0000
  H   H19       1.0  0.03313  0.46824  0.03616  1.0000
  H   H20       1.0  0.06760  0.44872  0.13433  1.0000
  H   H21       1.0  0.06452  0.51595  0.10351  1.0000
  C   C40       1.0  0.00014  0.40415  0.29360  1.0000
  H   H22       1.0  0.98831  0.39421  0.23163  1.0000
  C   C41       1.0  0.56247  0.00682  0.31400  1.0000
  N   N10       1.0  0.47235  0.00919  0.27062  1.0000
  C   C42       1.0  0.52331  0.00453  0.24592  1.0000
  O   O2        1.0  0.53467  0.99643  0.15604  1.0000
  C   C43       1.0  0.54040  0.04412  0.10560  1.0000
  H   H23       1.0  0.55155  0.03424  0.03615  1.0000
  H   H24       1.0  0.57093  0.06892  0.13416  1.0000
  H   H25       1.0  0.50374  0.06576  0.10315  1.0000
  C   C44       1.0  0.61538  0.00197  0.29408  1.0000
  H   H26       1.0  0.62545  0.99008  0.23220  1.0000
  C   C45       1.0  0.78798  0.00814  0.42630  1.0000
  C   C46       1.0  0.73299  0.00869  0.42726  1.0000
  C   C47       1.0  0.01918  0.78866  0.41008  1.0000
  C   C48       1.0  0.01939  0.73369  0.40944  1.0000
  C   C49       1.0  0.28581  0.01989  0.40935  1.0000
  C   C50       1.0  0.23084  0.01996  0.41001  1.0000
  C   C51       1.0  0.00710  0.23142  0.42554  1.0000
  C   C52       1.0  0.00736  0.28641  0.42656  1.0000
  H   H27       1.0  0.00632  0.30526  0.48792  1.0000
  H   H28       1.0  0.00593  0.21168  0.48603  1.0000
  H   H29       1.0  0.21176  0.02662  0.47008  1.0000
  H   H30       1.0  0.30489  0.02615  0.46936  1.0000
  H   H31       1.0  0.02651  0.80779  0.46986  1.0000
  H   H32       1.0  0.02661  0.71465  0.46916  1.0000
  H   H33       1.0  0.71411  0.00726  0.48858  1.0000
  H   H34       1.0  0.80770  0.00634  0.48677  1.0000
  N   N11       1.0  0.01242  0.47345  0.40092  1.0000
  C   C53       1.0  0.01708  0.52436  0.42588  1.0000
  C   C54       1.0  0.01506  0.56359  0.35794  1.0000
  O   O3        1.0  0.02512  0.53556  0.51584  1.0000
  C   C55       1.0  0.97737  0.54233  0.56575  1.0000
  H   H35       1.0  0.98722  0.55323  0.63533  1.0000
  H   H36       1.0  0.95495  0.50616  0.56789  1.0000
  H   H37       1.0  0.95333  0.57343  0.53698  1.0000
  C   C56       1.0  0.02086  0.61635  0.37805  1.0000
  H   H38       1.0  0.03556  0.62590  0.43826  1.0000
  N   N12       1.0  0.54590  0.01430  0.40104  1.0000
  C   C57       1.0  0.49495  0.01889  0.42577  1.0000
  C   C58       1.0  0.45581  0.01667  0.35767  1.0000
  O   O4        1.0  0.48361  0.02710  0.51563  1.0000
  C   C59       1.0  0.47684  0.97945  0.56578  1.0000
  H   H39       1.0  0.46586  0.98942  0.63528  1.0000
  H   H40       1.0  0.51303  0.95703  0.56817  1.0000
  H   H41       1.0  0.44581  0.95534  0.53705  1.0000
  C   C60       1.0  0.40302  0.02246  0.37755  1.0000
  H   H42       1.0  0.39337  0.03732  0.43761  1.0000
