data_image0
_chemical_formula_structural       C2NOCHC2NOCHC2NOCHC4H2C4H2C4H2NC18H12NC18H12NC18H12NC18H12C4H2C4H2C4H2C2NOCHC2NOCHC2NOCH
_chemical_formula_sum              "C114 N10 O6 H66"
_cell_length_a       38.922
_cell_length_b       38.922
_cell_length_c       14.7769
_cell_angle_alpha    90
_cell_angle_beta     90
_cell_angle_gamma    120

_space_group_name_H-M_alt    "P 1"
_space_group_IT_number       1

loop_
  _space_group_symop_operation_xyz
  'x, y, z'

loop_
  _atom_site_type_symbol
  _atom_site_label
  _atom_site_symmetry_multiplicity
  _atom_site_fract_x
  _atom_site_fract_y
  _atom_site_fract_z
  _atom_site_occupancy
  C   C1        1.0  0.23810  0.11851  0.26209  1.0000
  C   C2        1.0  0.19653  0.09708  0.26267  1.0000
  N   N1        1.0  0.18512  0.08690  0.17710  1.0000
  O   O1        1.0  0.25231  0.12394  0.17572  1.0000
  C   C3        1.0  0.21829  0.10229  0.12750  1.0000
  H   H1        1.0  0.21797  0.10014  0.05861  1.0000
  C   C4        1.0  0.87225  0.10874  0.27704  1.0000
  C   C5        1.0  0.89243  0.08743  0.27709  1.0000
  N   N2        1.0  0.88291  0.06678  0.20021  1.0000
  O   O2        1.0  0.84984  0.10130  0.20084  1.0000
  C   C6        1.0  0.85838  0.07579  0.15608  1.0000
  H   H2        1.0  0.84623  0.06374  0.09478  1.0000
  C   C7        1.0  0.89633  0.76917  0.26367  1.0000
  C   C8        1.0  0.91654  0.81068  0.26464  1.0000
  N   N3        1.0  0.93704  0.82272  0.18769  1.0000
  O   O3        1.0  0.90434  0.75511  0.18675  1.0000
  C   C9        1.0  0.92874  0.78965  0.14226  1.0000
  H   H3        1.0  0.94139  0.79026  0.08132  1.0000
  C   C10       1.0  0.62907  0.17878  0.35033  1.0000
  C   C11       1.0  0.55436  0.17906  0.36511  1.0000
  C   C12       1.0  0.57115  0.17841  0.28016  1.0000
  C   C13       1.0  0.60700  0.17780  0.27298  1.0000
  H   H4        1.0  0.61709  0.17721  0.20942  1.0000
  H   H5        1.0  0.55829  0.17994  0.22114  1.0000
  C   C14       1.0  0.83170  0.45562  0.34232  1.0000
  C   C15       1.0  0.83161  0.38088  0.36157  1.0000
  C   C16       1.0  0.83243  0.39762  0.27560  1.0000
  C   C17       1.0  0.83288  0.43395  0.26627  1.0000
  H   H6        1.0  0.83346  0.44411  0.20214  1.0000
  H   H7        1.0  0.83115  0.38276  0.21752  1.0000
  C   C18       1.0  0.55456  0.37994  0.34003  1.0000
  C   C19       1.0  0.62925  0.45491  0.35477  1.0000
  C   C20       1.0  0.61190  0.43811  0.26978  1.0000
  C   C21       1.0  0.57559  0.40205  0.26263  1.0000
  H   H8        1.0  0.56491  0.39186  0.19912  1.0000
  H   H9        1.0  0.62630  0.45118  0.21088  1.0000
  N   N4        1.0  0.00210  0.00347  0.34595  1.0000
  C   C22       1.0  0.04454  0.02450  0.34495  1.0000
  C   C23       1.0  0.98041  0.96116  0.34416  1.0000
  C   C24       1.0  0.98076  0.02445  0.34646  1.0000
  C   C25       1.0  0.97664  0.04238  0.26729  1.0000
  C   C26       1.0  0.95614  0.06366  0.26866  1.0000
  C   C27       1.0  0.93793  0.06708  0.34863  1.0000
  C   C28       1.0  0.94164  0.04834  0.42749  1.0000
  C   C29       1.0  0.96268  0.02750  0.42650  1.0000
  C   C30       1.0  0.06659  0.02396  0.42027  1.0000
  C   C31       1.0  0.10841  0.04417  0.41870  1.0000
  C   C32       1.0  0.13051  0.06727  0.34319  1.0000
  C   C33       1.0  0.10791  0.06842  0.26902  1.0000
  C   C34       1.0  0.06610  0.04687  0.26895  1.0000
  C   C35       1.0  0.97643  0.93864  0.42240  1.0000
  C   C36       1.0  0.95523  0.89685  0.42010  1.0000
  C   C37       1.0  0.93649  0.87573  0.33992  1.0000
  C   C38       1.0  0.93990  0.89867  0.26222  1.0000
  C   C39       1.0  0.96153  0.94053  0.26417  1.0000
  H   H10       1.0  0.12247  0.04126  0.47403  1.0000
  H   H11       1.0  0.05235  0.00864  0.47717  1.0000
  H   H12       1.0  0.05155  0.04803  0.21276  1.0000
  H   H13       1.0  0.12148  0.08568  0.21388  1.0000
  H   H14       1.0  0.98839  0.03993  0.20759  1.0000
  H   H15       1.0  0.95530  0.07727  0.21023  1.0000
  H   H16       1.0  0.98873  0.95253  0.48211  1.0000
  H   H17       1.0  0.95410  0.88195  0.47807  1.0000
  H   H18       1.0  0.92599  0.88510  0.20329  1.0000
  H   H19       1.0  0.96337  0.95602  0.20674  1.0000
  H   H20       1.0  0.96479  0.01446  0.48472  1.0000
  H   H21       1.0  0.92852  0.04921  0.48672  1.0000
  N   N5        1.0  0.43229  0.21857  0.34851  1.0000
  C   C40       1.0  0.45532  0.26047  0.33333  1.0000
  C   C41       1.0  0.38982  0.19726  0.34720  1.0000
  C   C42       1.0  0.45521  0.19970  0.36515  1.0000
  C   C43       1.0  0.48211  0.21237  0.43846  1.0000
  C   C44       1.0  0.51382  0.20464  0.44015  1.0000
  C   C45       1.0  0.51904  0.18231  0.37103  1.0000
  C   C46       1.0  0.48951  0.16651  0.30262  1.0000
  C   C47       1.0  0.45894  0.17580  0.29843  1.0000
  C   C48       1.0  0.45808  0.28765  0.40023  1.0000
  C   C49       1.0  0.48873  0.32753  0.39831  1.0000
  C   C50       1.0  0.51927  0.34154  0.33242  1.0000
  C   C51       1.0  0.51483  0.31468  0.26230  1.0000
  C   C52       1.0  0.48310  0.27523  0.26172  1.0000
  C   C53       1.0  0.36745  0.20199  0.41626  1.0000
  C   C54       1.0  0.32562  0.18166  0.41359  1.0000
  C   C55       1.0  0.30373  0.15395  0.34424  1.0000
  C   C56       1.0  0.32666  0.14845  0.27712  1.0000
  C   C57       1.0  0.36848  0.17033  0.27705  1.0000
  H   H22       1.0  0.48950  0.34567  0.44916  1.0000
  H   H23       1.0  0.43985  0.27816  0.45508  1.0000
  H   H24       1.0  0.48301  0.25611  0.21412  1.0000
  H   H25       1.0  0.53633  0.32247  0.21417  1.0000
  H   H26       1.0  0.48153  0.23129  0.48567  1.0000
  H   H27       1.0  0.53495  0.21870  0.48872  1.0000
  H   H28       1.0  0.38136  0.22035  0.46949  1.0000
  H   H29       1.0  0.31144  0.18784  0.46361  1.0000
  H   H30       1.0  0.31338  0.12780  0.22736  1.0000
  H   H31       1.0  0.38312  0.16613  0.22505  1.0000
  H   H32       1.0  0.44171  0.16771  0.24195  1.0000
  H   H33       1.0  0.49122  0.14990  0.25112  1.0000
  N   N6        1.0  0.79042  0.21904  0.35520  1.0000
  C   C58       1.0  0.74859  0.19981  0.34053  1.0000
  C   C59       1.0  0.81148  0.19791  0.35422  1.0000
  C   C60       1.0  0.80967  0.26087  0.37005  1.0000
  C   C61       1.0  0.79648  0.27585  0.44075  1.0000
  C   C62       1.0  0.80460  0.31537  0.43929  1.0000
  C   C63       1.0  0.82793  0.34221  0.36999  1.0000
  C   C64       1.0  0.84416  0.32765  0.30441  1.0000
  C   C65       1.0  0.83468  0.28764  0.30337  1.0000
  C   C66       1.0  0.72193  0.17484  0.40744  1.0000
  C   C67       1.0  0.68200  0.16559  0.40711  1.0000
  C   C68       1.0  0.66756  0.18216  0.34223  1.0000
  C   C69       1.0  0.69405  0.20494  0.27185  1.0000
  C   C70       1.0  0.73353  0.21295  0.26990  1.0000
  C   C71       1.0  0.81478  0.17936  0.43312  1.0000
  C   C72       1.0  0.83531  0.15805  0.43180  1.0000
  C   C73       1.0  0.85377  0.15485  0.35194  1.0000
  C   C74       1.0  0.85068  0.17415  0.27346  1.0000
  C   C75       1.0  0.82964  0.19494  0.27429  1.0000
  H   H34       1.0  0.66408  0.14804  0.45807  1.0000
  H   H35       1.0  0.73207  0.16568  0.46073  1.0000
  H   H36       1.0  0.75243  0.23233  0.22247  1.0000
  H   H37       1.0  0.68598  0.21879  0.22462  1.0000
  H   H38       1.0  0.77687  0.25683  0.48770  1.0000
  H   H39       1.0  0.79025  0.32309  0.48579  1.0000
  H   H40       1.0  0.80203  0.18114  0.49210  1.0000
  H   H41       1.0  0.83608  0.14428  0.49010  1.0000
  H   H42       1.0  0.86432  0.17382  0.21459  1.0000
  H   H43       1.0  0.82772  0.20808  0.21608  1.0000
  H   H44       1.0  0.84361  0.27755  0.24958  1.0000
  H   H45       1.0  0.86138  0.34549  0.25291  1.0000
  N   N7        1.0  0.79069  0.57619  0.34110  1.0000
  C   C76       1.0  0.81013  0.55371  0.32749  1.0000
  C   C77       1.0  0.81138  0.61839  0.34016  1.0000
  C   C78       1.0  0.74900  0.55346  0.35759  1.0000
  C   C79       1.0  0.73465  0.52594  0.42961  1.0000
  C   C80       1.0  0.69522  0.49436  0.42990  1.0000
  C   C81       1.0  0.66787  0.49008  0.36114  1.0000
  C   C82       1.0  0.68180  0.52028  0.29421  1.0000
  C   C83       1.0  0.72173  0.55094  0.29138  1.0000
  C   C84       1.0  0.83535  0.55268  0.39470  1.0000
  C   C85       1.0  0.84480  0.52213  0.39589  1.0000
  C   C86       1.0  0.82818  0.49059  0.33232  1.0000
  C   C87       1.0  0.80519  0.49362  0.26150  1.0000
  C   C88       1.0  0.79698  0.52496  0.25803  1.0000
  C   C89       1.0  0.82978  0.64041  0.41898  1.0000
  C   C90       1.0  0.85009  0.68225  0.41786  1.0000
  C   C91       1.0  0.85235  0.70376  0.33834  1.0000
  C   C92       1.0  0.83327  0.68119  0.25994  1.0000
  C   C93       1.0  0.81348  0.63937  0.26056  1.0000
  H   H46       1.0  0.86242  0.52219  0.44721  1.0000
  H   H47       1.0  0.84447  0.57231  0.44732  1.0000
  H   H48       1.0  0.77736  0.52397  0.21061  1.0000
  H   H49       1.0  0.79133  0.47131  0.21517  1.0000
  H   H50       1.0  0.75404  0.52591  0.47631  1.0000
  H   H51       1.0  0.68796  0.47273  0.47732  1.0000
  H   H52       1.0  0.82846  0.62602  0.47787  1.0000
  H   H53       1.0  0.86371  0.69693  0.47614  1.0000
  H   H54       1.0  0.83289  0.69498  0.20138  1.0000
  H   H55       1.0  0.80030  0.62420  0.20250  1.0000
  H   H56       1.0  0.73137  0.56949  0.23672  1.0000
  H   H57       1.0  0.66357  0.51905  0.24298  1.0000
  C   C94       1.0  0.26069  0.13239  0.34298  1.0000
  C   C95       1.0  0.17353  0.08870  0.34265  1.0000
  C   C96       1.0  0.19606  0.10314  0.42347  1.0000
  C   C97       1.0  0.23798  0.12362  0.42378  1.0000
  H   H58       1.0  0.25167  0.13165  0.48536  1.0000
  H   H59       1.0  0.18219  0.09932  0.48441  1.0000
  C   C98       1.0  0.87474  0.13311  0.35089  1.0000
  C   C99       1.0  0.91688  0.08876  0.34957  1.0000
  C   C100      1.0  0.91951  0.11319  0.42362  1.0000
  C   C101      1.0  0.89906  0.13470  0.42429  1.0000
  H   H60       1.0  0.90290  0.15243  0.47891  1.0000
  H   H61       1.0  0.93730  0.11640  0.47767  1.0000
  C   C102      1.0  0.87275  0.74649  0.33774  1.0000
  C   C103      1.0  0.91485  0.83300  0.33841  1.0000
  C   C104      1.0  0.89089  0.81037  0.41229  1.0000
  C   C105      1.0  0.87049  0.76842  0.41202  1.0000
  H   H62       1.0  0.85323  0.75395  0.46683  1.0000
  H   H63       1.0  0.88747  0.82431  0.46735  1.0000
  C   C106      1.0  0.61220  0.17917  0.43519  1.0000
  C   C107      1.0  0.57622  0.17896  0.44168  1.0000
  N   N8        1.0  0.56873  0.17913  0.52964  1.0000
  O   O4        1.0  0.62827  0.18176  0.51873  1.0000
  C   C108      1.0  0.59936  0.18026  0.57354  1.0000
  H   H64       1.0  0.60160  0.18140  0.64245  1.0000
  C   C109      1.0  0.83130  0.43910  0.42818  1.0000
  C   C110      1.0  0.83163  0.40347  0.43682  1.0000
  N   N9        1.0  0.83121  0.39645  0.52521  1.0000
  O   O5        1.0  0.82830  0.45307  0.51077  1.0000
  C   C111      1.0  0.83017  0.42637  0.56731  1.0000
  H   H65       1.0  0.82798  0.42749  0.63599  1.0000
  C   C112      1.0  0.57180  0.39688  0.42490  1.0000
  C   C113      1.0  0.60737  0.43301  0.43136  1.0000
  N   N10       1.0  0.61500  0.44061  0.51931  1.0000
  O   O6        1.0  0.55851  0.38079  0.50854  1.0000
  C   C114      1.0  0.58568  0.40988  0.56331  1.0000
  H   H66       1.0  0.58463  0.40767  0.63223  1.0000
