data_image0
_chemical_formula_structural       C2OHCHC2OHCHCNC2H3C3HC3H3NCNC2H3C3HC3H3NC2H2CN2C3H2C2H2CN2C3H2C3OHC6O2H2C6O2H3C2H3NC3H3NC3H3NC3H3NC4H2C3H2C3H2C3H2C3H2C3H3NHC3H3NC3H3NC3H3NC3OHC6O2H2C6O2H3C2H3NC3H3NC3H3NC3H3NC4H2C3H2C3H2C3H2C3H2C3H3NHC3H3NC3H3NC3H3NC6O2H2C6O2H2C6O2H2C2H3NC3H3NC3H3NC3H3NC3H3NC3H3NC4H2C3H2C3H2C3H2C3H2C3H2C3H3NC3H3NC3H3NC3H3NC3H3NC3H3NC6O2H2C6O2H2C6O2H2C2H3NC3H3NC3H3NC3H3NC3H3NC3H3NC4H2C3H2C3H2C3H2C3H2C3H2C3H3NC3H3NC3H3NC3H3NC3H3NC3H3N
_chemical_formula_sum              "C288 O24 H216 N48"
_cell_length_a       46.5029
_cell_length_b       46.503
_cell_length_c       14.8938
_cell_angle_alpha    90
_cell_angle_beta     90
_cell_angle_gamma    120

_space_group_name_H-M_alt    "P 1"
_space_group_IT_number       1

loop_
  _space_group_symop_operation_xyz
  'x, y, z'

loop_
  _atom_site_type_symbol
  _atom_site_label
  _atom_site_symmetry_multiplicity
  _atom_site_fract_x
  _atom_site_fract_y
  _atom_site_fract_z
  _atom_site_occupancy
  C   C1        1.0  0.02341  0.26313  0.33919  1.0000
  C   C2        1.0  0.04253  0.29869  0.32717  1.0000
  O   O1        1.0  0.02909  0.31749  0.30081  1.0000
  H   H1        1.0  0.02329  0.31243  0.23699  1.0000
  C   C3        1.0  0.04293  0.24745  0.35221  1.0000
  H   H2        1.0  0.03214  0.22300  0.36831  1.0000
  C   C4        1.0  0.02341  0.76313  0.33919  1.0000
  C   C5        1.0  0.04253  0.79869  0.32717  1.0000
  O   O2        1.0  0.02909  0.81748  0.30081  1.0000
  H   H3        1.0  0.02329  0.81242  0.23699  1.0000
  C   C6        1.0  0.04293  0.74745  0.35221  1.0000
  H   H4        1.0  0.03214  0.72300  0.36831  1.0000
  C   C7        1.0  0.07772  0.31679  0.33426  1.0000
  N   N1        1.0  0.11214  0.25053  0.26677  1.0000
  C   C8        1.0  0.10768  0.35613  0.16213  1.0000
  C   C9        1.0  0.11596  0.36886  0.25510  1.0000
  H   H5        1.0  0.10717  0.37492  0.11934  1.0000
  H   H6        1.0  0.08352  0.33357  0.15745  1.0000
  H   H7        1.0  0.12653  0.35077  0.13687  1.0000
  C   C10       1.0  0.09737  0.35180  0.33230  1.0000
  C   C11       1.0  0.09491  0.29918  0.34094  1.0000
  C   C12       1.0  0.07793  0.26444  0.34772  1.0000
  H   H8        1.0  0.12044  0.31194  0.34106  1.0000
  C   C13       1.0  0.09708  0.24858  0.34669  1.0000
  C   C14       1.0  0.11408  0.24752  0.42452  1.0000
  C   C15       1.0  0.10385  0.25012  0.51684  1.0000
  H   H9        1.0  0.10447  0.27372  0.52571  1.0000
  H   H10       1.0  0.12032  0.24868  0.56666  1.0000
  H   H11       1.0  0.07868  0.22982  0.52919  1.0000
  N   N2        1.0  0.11175  0.36533  0.41275  1.0000
  C   C16       1.0  0.07772  0.81679  0.33426  1.0000
  N   N3        1.0  0.11214  0.75053  0.26677  1.0000
  C   C17       1.0  0.10768  0.85613  0.16213  1.0000
  C   C18       1.0  0.11596  0.86886  0.25510  1.0000
  H   H12       1.0  0.10717  0.87492  0.11934  1.0000
  H   H13       1.0  0.08352  0.83357  0.15745  1.0000
  H   H14       1.0  0.12653  0.85077  0.13687  1.0000
  C   C19       1.0  0.09737  0.85180  0.33230  1.0000
  C   C20       1.0  0.09491  0.79917  0.34094  1.0000
  C   C21       1.0  0.07793  0.76444  0.34772  1.0000
  H   H15       1.0  0.12044  0.81194  0.34106  1.0000
  C   C22       1.0  0.09708  0.74858  0.34669  1.0000
  C   C23       1.0  0.11408  0.74752  0.42452  1.0000
  C   C24       1.0  0.10385  0.75012  0.51684  1.0000
  H   H16       1.0  0.10447  0.77372  0.52571  1.0000
  H   H17       1.0  0.12032  0.74868  0.56666  1.0000
  H   H18       1.0  0.07868  0.72982  0.52919  1.0000
  N   N4        1.0  0.11175  0.86533  0.41275  1.0000
  C   C25       1.0  0.15316  0.25322  0.16212  1.0000
  C   C26       1.0  0.14030  0.24892  0.25493  1.0000
  H   H19       1.0  0.13438  0.23392  0.11932  1.0000
  H   H20       1.0  0.15865  0.27744  0.13653  1.0000
  C   C27       1.0  0.15708  0.24733  0.33273  1.0000
  N   N5        1.0  0.14566  0.39704  0.26761  1.0000
  N   N6        1.0  0.14335  0.24801  0.41293  1.0000
  C   C28       1.0  0.15865  0.41201  0.34780  1.0000
  C   C29       1.0  0.14050  0.39459  0.42504  1.0000
  C   C30       1.0  0.15322  0.40451  0.51754  1.0000
  H   H21       1.0  0.13531  0.38781  0.56701  1.0000
  H   H22       1.0  0.15798  0.42960  0.53063  1.0000
  C   C31       1.0  0.15316  0.75322  0.16212  1.0000
  C   C32       1.0  0.14030  0.74892  0.25493  1.0000
  H   H23       1.0  0.13438  0.73391  0.11932  1.0000
  H   H24       1.0  0.15865  0.77744  0.13653  1.0000
  C   C33       1.0  0.15708  0.74733  0.33273  1.0000
  N   N7        1.0  0.14566  0.89704  0.26761  1.0000
  N   N8        1.0  0.14336  0.74801  0.41293  1.0000
  C   C34       1.0  0.15865  0.91201  0.34780  1.0000
  C   C35       1.0  0.14050  0.89459  0.42504  1.0000
  C   C36       1.0  0.15322  0.90451  0.51754  1.0000
  H   H25       1.0  0.13531  0.88781  0.56701  1.0000
  H   H26       1.0  0.15798  0.92960  0.53063  1.0000
  C   C37       1.0  0.48737  0.24400  0.33924  1.0000
  C   C38       1.0  0.43308  0.19032  0.33453  1.0000
  C   C39       1.0  0.46825  0.20845  0.32717  1.0000
  O   O3        1.0  0.48170  0.18968  0.30062  1.0000
  H   H27       1.0  0.48756  0.19483  0.23686  1.0000
  C   C40       1.0  0.26489  0.24511  0.33923  1.0000
  C   C41       1.0  0.31855  0.24447  0.33433  1.0000
  C   C42       1.0  0.30044  0.26153  0.32702  1.0000
  C   C43       1.0  0.24576  0.26202  0.33926  1.0000
  C   C44       1.0  0.21019  0.24557  0.32735  1.0000
  C   C45       1.0  0.19210  0.26267  0.33441  1.0000
  O   O4        1.0  0.31922  0.29376  0.30060  1.0000
  O   O5        1.0  0.19137  0.21333  0.30110  1.0000
  H   H28       1.0  0.31411  0.29450  0.23682  1.0000
  H   H29       1.0  0.19646  0.21253  0.23735  1.0000
  C   C46       1.0  0.26385  0.02165  0.33869  1.0000
  C   C47       1.0  0.26457  0.07599  0.33450  1.0000
  C   C48       1.0  0.24745  0.04082  0.32693  1.0000
  C   C49       1.0  0.24687  0.48560  0.33871  1.0000
  C   C50       1.0  0.26326  0.46644  0.32668  1.0000
  C   C51       1.0  0.24619  0.43129  0.33471  1.0000
  O   O6        1.0  0.21522  0.02746  0.30058  1.0000
  O   O7        1.0  0.29543  0.47980  0.29977  1.0000
  H   H30       1.0  0.21443  0.02155  0.23684  1.0000
  H   H31       1.0  0.29608  0.48571  0.23607  1.0000
  H   H32       1.0  0.17567  0.25151  0.15786  1.0000
  C   C52       1.0  0.25573  0.40170  0.16216  1.0000
  C   C53       1.0  0.26003  0.39318  0.25500  1.0000
  H   H33       1.0  0.27509  0.40231  0.11942  1.0000
  H   H34       1.0  0.25733  0.42587  0.15786  1.0000
  H   H35       1.0  0.23155  0.38291  0.13650  1.0000
  N   N9        1.0  0.25843  0.36342  0.26683  1.0000
  C   C54       1.0  0.26151  0.41162  0.33255  1.0000
  C   C55       1.0  0.35774  0.25390  0.16190  1.0000
  C   C56       1.0  0.37052  0.25827  0.25480  1.0000
  H   H36       1.0  0.37654  0.27319  0.11910  1.0000
  H   H37       1.0  0.33522  0.25558  0.15741  1.0000
  H   H38       1.0  0.35229  0.22967  0.13650  1.0000
  N   N10       1.0  0.39864  0.25661  0.26705  1.0000
  C   C57       1.0  0.35356  0.25983  0.33216  1.0000
  C   C58       1.0  0.25503  0.10549  0.16242  1.0000
  C   C59       1.0  0.25077  0.11405  0.25527  1.0000
  H   H39       1.0  0.23567  0.10489  0.11973  1.0000
  H   H40       1.0  0.25340  0.08131  0.15812  1.0000
  H   H41       1.0  0.27921  0.12426  0.13671  1.0000
  N   N11       1.0  0.25230  0.14378  0.26704  1.0000
  C   C60       1.0  0.24928  0.09570  0.33308  1.0000
  C   C61       1.0  0.40345  0.15117  0.16195  1.0000
  C   C62       1.0  0.39494  0.13836  0.25481  1.0000
  H   H42       1.0  0.40402  0.13240  0.11922  1.0000
  H   H43       1.0  0.42763  0.17372  0.15762  1.0000
  H   H44       1.0  0.38468  0.15659  0.13635  1.0000
  N   N12       1.0  0.36518  0.11020  0.26682  1.0000
  C   C63       1.0  0.41344  0.15531  0.33226  1.0000
  C   C64       1.0  0.46784  0.25967  0.35232  1.0000
  C   C65       1.0  0.43283  0.24265  0.34816  1.0000
  C   C66       1.0  0.41587  0.20791  0.34150  1.0000
  H   H45       1.0  0.47862  0.28414  0.36822  1.0000
  H   H46       1.0  0.39034  0.19514  0.34170  1.0000
  C   C67       1.0  0.24921  0.20991  0.35234  1.0000
  C   C68       1.0  0.26621  0.19191  0.34789  1.0000
  C   C69       1.0  0.30094  0.20967  0.34117  1.0000
  H   H47       1.0  0.22476  0.19625  0.36849  1.0000
  H   H48       1.0  0.31370  0.19690  0.34135  1.0000
  C   C70       1.0  0.20971  0.29746  0.34129  1.0000
  C   C71       1.0  0.24444  0.31522  0.34789  1.0000
  C   C72       1.0  0.26145  0.29722  0.35223  1.0000
  H   H49       1.0  0.19695  0.31023  0.34150  1.0000
  H   H50       1.0  0.28592  0.31090  0.36812  1.0000
  C   C73       1.0  0.29906  0.04112  0.35168  1.0000
  C   C74       1.0  0.31709  0.07613  0.34799  1.0000
  C   C75       1.0  0.29936  0.09314  0.34178  1.0000
  H   H51       1.0  0.31272  0.03028  0.36735  1.0000
  H   H52       1.0  0.31214  0.11867  0.34234  1.0000
  C   C76       1.0  0.21141  0.41412  0.34221  1.0000
  C   C77       1.0  0.19365  0.43111  0.34830  1.0000
  C   C78       1.0  0.21167  0.46613  0.35193  1.0000
  H   H53       1.0  0.19864  0.38859  0.34289  1.0000
  H   H54       1.0  0.19803  0.47696  0.36786  1.0000
  C   C79       1.0  0.26028  0.35021  0.34669  1.0000
  C   C80       1.0  0.26121  0.36826  0.42442  1.0000
  C   C81       1.0  0.25846  0.35546  0.51682  1.0000
  H   H55       1.0  0.23483  0.33249  0.52551  1.0000
  H   H56       1.0  0.25983  0.37337  0.56650  1.0000
  H   H57       1.0  0.27872  0.35056  0.52955  1.0000
  N   N13       1.0  0.26069  0.39702  0.41263  1.0000
  H   H58       1.0  0.17625  0.40397  0.52615  1.0000
  C   C82       1.0  0.41367  0.25848  0.34701  1.0000
  C   C83       1.0  0.39638  0.25937  0.42445  1.0000
  C   C84       1.0  0.40636  0.25661  0.51693  1.0000
  H   H59       1.0  0.40572  0.23300  0.52568  1.0000
  H   H60       1.0  0.38977  0.25796  0.56648  1.0000
  H   H61       1.0  0.43151  0.27689  0.52980  1.0000
  N   N14       1.0  0.36716  0.25895  0.41246  1.0000
  C   C85       1.0  0.25035  0.15691  0.34693  1.0000
  C   C86       1.0  0.24935  0.13890  0.42478  1.0000
  C   C87       1.0  0.25192  0.15171  0.51709  1.0000
  H   H62       1.0  0.27549  0.17472  0.52594  1.0000
  H   H63       1.0  0.25053  0.13383  0.56692  1.0000
  H   H64       1.0  0.23159  0.15653  0.52945  1.0000
  N   N15       1.0  0.24992  0.11015  0.41318  1.0000
  C   C88       1.0  0.35210  0.09526  0.34687  1.0000
  C   C89       1.0  0.37016  0.11243  0.42452  1.0000
  C   C90       1.0  0.35737  0.10244  0.51696  1.0000
  H   H65       1.0  0.33440  0.10310  0.52563  1.0000
  H   H66       1.0  0.37530  0.11901  0.56656  1.0000
  H   H67       1.0  0.35247  0.07728  0.52980  1.0000
  N   N16       1.0  0.39894  0.14168  0.41255  1.0000
  C   C91       1.0  0.48737  0.74400  0.33924  1.0000
  C   C92       1.0  0.43308  0.69032  0.33453  1.0000
  C   C93       1.0  0.46825  0.70845  0.32717  1.0000
  O   O8        1.0  0.48170  0.68967  0.30062  1.0000
  H   H68       1.0  0.48756  0.69482  0.23686  1.0000
  C   C94       1.0  0.26489  0.74511  0.33923  1.0000
  C   C95       1.0  0.31855  0.74447  0.33433  1.0000
  C   C96       1.0  0.30044  0.76153  0.32702  1.0000
  C   C97       1.0  0.24576  0.76202  0.33926  1.0000
  C   C98       1.0  0.21019  0.74557  0.32735  1.0000
  C   C99       1.0  0.19210  0.76267  0.33441  1.0000
  O   O9        1.0  0.31922  0.79377  0.30060  1.0000
  O   O10       1.0  0.19137  0.71333  0.30110  1.0000
  H   H69       1.0  0.31411  0.79450  0.23682  1.0000
  H   H70       1.0  0.19646  0.71253  0.23735  1.0000
  C   C100      1.0  0.26385  0.52165  0.33869  1.0000
  C   C101      1.0  0.26457  0.57598  0.33450  1.0000
  C   C102      1.0  0.24745  0.54082  0.32693  1.0000
  C   C103      1.0  0.24687  0.98560  0.33871  1.0000
  C   C104      1.0  0.26326  0.96644  0.32668  1.0000
  C   C105      1.0  0.24619  0.93129  0.33471  1.0000
  O   O11       1.0  0.21522  0.52746  0.30058  1.0000
  O   O12       1.0  0.29543  0.97980  0.29977  1.0000
  H   H71       1.0  0.21443  0.52155  0.23684  1.0000
  H   H72       1.0  0.29608  0.98571  0.23607  1.0000
  H   H73       1.0  0.17567  0.75151  0.15786  1.0000
  C   C106      1.0  0.25573  0.90170  0.16216  1.0000
  C   C107      1.0  0.26003  0.89318  0.25500  1.0000
  H   H74       1.0  0.27509  0.90231  0.11942  1.0000
  H   H75       1.0  0.25732  0.92587  0.15786  1.0000
  H   H76       1.0  0.23155  0.88291  0.13650  1.0000
  N   N17       1.0  0.25843  0.86342  0.26683  1.0000
  C   C108      1.0  0.26151  0.91162  0.33255  1.0000
  C   C109      1.0  0.35775  0.75390  0.16190  1.0000
  C   C110      1.0  0.37052  0.75827  0.25480  1.0000
  H   H77       1.0  0.37654  0.77318  0.11910  1.0000
  H   H78       1.0  0.33522  0.75558  0.15741  1.0000
  H   H79       1.0  0.35229  0.72967  0.13650  1.0000
  N   N18       1.0  0.39864  0.75661  0.26705  1.0000
  C   C111      1.0  0.35356  0.75983  0.33216  1.0000
  C   C112      1.0  0.25503  0.60549  0.16242  1.0000
  C   C113      1.0  0.25077  0.61405  0.25527  1.0000
  H   H80       1.0  0.23567  0.60489  0.11973  1.0000
  H   H81       1.0  0.25340  0.58131  0.15812  1.0000
  H   H82       1.0  0.27921  0.62426  0.13671  1.0000
  N   N19       1.0  0.25230  0.64379  0.26704  1.0000
  C   C114      1.0  0.24928  0.59570  0.33308  1.0000
  C   C115      1.0  0.40345  0.65117  0.16195  1.0000
  C   C116      1.0  0.39494  0.63836  0.25481  1.0000
  H   H83       1.0  0.40401  0.63240  0.11922  1.0000
  H   H84       1.0  0.42763  0.67372  0.15762  1.0000
  H   H85       1.0  0.38468  0.65659  0.13635  1.0000
  N   N20       1.0  0.36518  0.61020  0.26682  1.0000
  C   C117      1.0  0.41344  0.65531  0.33226  1.0000
  C   C118      1.0  0.46784  0.75967  0.35232  1.0000
  C   C119      1.0  0.43283  0.74265  0.34816  1.0000
  C   C120      1.0  0.41587  0.70791  0.34150  1.0000
  H   H86       1.0  0.47862  0.78414  0.36822  1.0000
  H   H87       1.0  0.39034  0.69514  0.34170  1.0000
  C   C121      1.0  0.24921  0.70991  0.35234  1.0000
  C   C122      1.0  0.26621  0.69191  0.34789  1.0000
  C   C123      1.0  0.30094  0.70967  0.34117  1.0000
  H   H88       1.0  0.22476  0.69625  0.36849  1.0000
  H   H89       1.0  0.31370  0.69690  0.34135  1.0000
  C   C124      1.0  0.20971  0.79746  0.34129  1.0000
  C   C125      1.0  0.24444  0.81522  0.34789  1.0000
  C   C126      1.0  0.26145  0.79722  0.35223  1.0000
  H   H90       1.0  0.19695  0.81024  0.34150  1.0000
  H   H91       1.0  0.28592  0.81090  0.36812  1.0000
  C   C127      1.0  0.29906  0.54112  0.35168  1.0000
  C   C128      1.0  0.31709  0.57613  0.34799  1.0000
  C   C129      1.0  0.29936  0.59314  0.34178  1.0000
  H   H92       1.0  0.31272  0.53028  0.36735  1.0000
  H   H93       1.0  0.31214  0.61867  0.34234  1.0000
  C   C130      1.0  0.21141  0.91412  0.34221  1.0000
  C   C131      1.0  0.19365  0.93111  0.34830  1.0000
  C   C132      1.0  0.21168  0.96613  0.35193  1.0000
  H   H94       1.0  0.19864  0.88859  0.34289  1.0000
  H   H95       1.0  0.19804  0.97696  0.36786  1.0000
  C   C133      1.0  0.26028  0.85021  0.34669  1.0000
  C   C134      1.0  0.26121  0.86826  0.42442  1.0000
  C   C135      1.0  0.25845  0.85546  0.51682  1.0000
  H   H96       1.0  0.23483  0.83249  0.52551  1.0000
  H   H97       1.0  0.25983  0.87337  0.56650  1.0000
  H   H98       1.0  0.27872  0.85056  0.52955  1.0000
  N   N21       1.0  0.26069  0.89702  0.41263  1.0000
  H   H99       1.0  0.17625  0.90397  0.52615  1.0000
  C   C136      1.0  0.41367  0.75847  0.34701  1.0000
  C   C137      1.0  0.39638  0.75937  0.42445  1.0000
  C   C138      1.0  0.40636  0.75661  0.51693  1.0000
  H   H100      1.0  0.40572  0.73300  0.52568  1.0000
  H   H101      1.0  0.38977  0.75796  0.56648  1.0000
  H   H102      1.0  0.43151  0.77689  0.52980  1.0000
  N   N22       1.0  0.36716  0.75895  0.41246  1.0000
  C   C139      1.0  0.25035  0.65691  0.34693  1.0000
  C   C140      1.0  0.24935  0.63890  0.42478  1.0000
  C   C141      1.0  0.25192  0.65171  0.51709  1.0000
  H   H103      1.0  0.27549  0.67472  0.52594  1.0000
  H   H104      1.0  0.25053  0.63383  0.56692  1.0000
  H   H105      1.0  0.23159  0.65653  0.52945  1.0000
  N   N23       1.0  0.24992  0.61015  0.41318  1.0000
  C   C142      1.0  0.35210  0.59526  0.34687  1.0000
  C   C143      1.0  0.37016  0.61243  0.42452  1.0000
  C   C144      1.0  0.35737  0.60244  0.51696  1.0000
  H   H106      1.0  0.33440  0.60310  0.52563  1.0000
  H   H107      1.0  0.37530  0.61901  0.56656  1.0000
  H   H108      1.0  0.35247  0.57728  0.52980  1.0000
  N   N24       1.0  0.39894  0.64168  0.41255  1.0000
  C   C145      1.0  0.98737  0.24400  0.33924  1.0000
  C   C146      1.0  0.93308  0.19032  0.33453  1.0000
  C   C147      1.0  0.96826  0.20845  0.32717  1.0000
  C   C148      1.0  0.52341  0.26313  0.33919  1.0000
  C   C149      1.0  0.54253  0.29869  0.32717  1.0000
  C   C150      1.0  0.57772  0.31679  0.33426  1.0000
  O   O13       1.0  0.98170  0.18968  0.30062  1.0000
  O   O14       1.0  0.52909  0.31749  0.30081  1.0000
  H   H109      1.0  0.98756  0.19483  0.23686  1.0000
  H   H110      1.0  0.52329  0.31243  0.23699  1.0000
  C   C151      1.0  0.76489  0.24511  0.33923  1.0000
  C   C152      1.0  0.81855  0.24447  0.33433  1.0000
  C   C153      1.0  0.80044  0.26153  0.32702  1.0000
  C   C154      1.0  0.74576  0.26202  0.33926  1.0000
  C   C155      1.0  0.71019  0.24557  0.32735  1.0000
  C   C156      1.0  0.69210  0.26267  0.33441  1.0000
  O   O15       1.0  0.81922  0.29376  0.30060  1.0000
  O   O16       1.0  0.69137  0.21333  0.30110  1.0000
  H   H111      1.0  0.81411  0.29450  0.23682  1.0000
  H   H112      1.0  0.69647  0.21253  0.23735  1.0000
  C   C157      1.0  0.76385  0.02165  0.33869  1.0000
  C   C158      1.0  0.76457  0.07599  0.33450  1.0000
  C   C159      1.0  0.74745  0.04082  0.32693  1.0000
  C   C160      1.0  0.74687  0.48560  0.33871  1.0000
  C   C161      1.0  0.76326  0.46644  0.32668  1.0000
  C   C162      1.0  0.74619  0.43129  0.33471  1.0000
  O   O17       1.0  0.71522  0.02746  0.30058  1.0000
  O   O18       1.0  0.79543  0.47980  0.29977  1.0000
  H   H113      1.0  0.71443  0.02155  0.23684  1.0000
  H   H114      1.0  0.79608  0.48571  0.23607  1.0000
  C   C163      1.0  0.65316  0.25322  0.16212  1.0000
  C   C164      1.0  0.64030  0.24892  0.25493  1.0000
  H   H115      1.0  0.63438  0.23392  0.11932  1.0000
  H   H116      1.0  0.67567  0.25151  0.15786  1.0000
  H   H117      1.0  0.65865  0.27744  0.13653  1.0000
  N   N25       1.0  0.61214  0.25053  0.26677  1.0000
  C   C165      1.0  0.65708  0.24733  0.33273  1.0000
  C   C166      1.0  0.75573  0.40170  0.16216  1.0000
  C   C167      1.0  0.76003  0.39318  0.25500  1.0000
  H   H118      1.0  0.77509  0.40231  0.11942  1.0000
  H   H119      1.0  0.75733  0.42587  0.15786  1.0000
  H   H120      1.0  0.73155  0.38291  0.13650  1.0000
  N   N26       1.0  0.75843  0.36342  0.26683  1.0000
  C   C168      1.0  0.76151  0.41162  0.33255  1.0000
  C   C169      1.0  0.60768  0.35613  0.16213  1.0000
  C   C170      1.0  0.61596  0.36886  0.25510  1.0000
  H   H121      1.0  0.60717  0.37492  0.11934  1.0000
  H   H122      1.0  0.58352  0.33357  0.15745  1.0000
  H   H123      1.0  0.62653  0.35077  0.13687  1.0000
  N   N27       1.0  0.64566  0.39704  0.26761  1.0000
  C   C171      1.0  0.59737  0.35180  0.33230  1.0000
  C   C172      1.0  0.85774  0.25390  0.16190  1.0000
  C   C173      1.0  0.87052  0.25827  0.25480  1.0000
  H   H124      1.0  0.87654  0.27319  0.11910  1.0000
  H   H125      1.0  0.83522  0.25558  0.15741  1.0000
  H   H126      1.0  0.85229  0.22967  0.13650  1.0000
  N   N28       1.0  0.89864  0.25661  0.26705  1.0000
  C   C174      1.0  0.85356  0.25983  0.33216  1.0000
  C   C175      1.0  0.75503  0.10549  0.16242  1.0000
  C   C176      1.0  0.75077  0.11405  0.25527  1.0000
  H   H127      1.0  0.73567  0.10489  0.11973  1.0000
  H   H128      1.0  0.75340  0.08131  0.15812  1.0000
  H   H129      1.0  0.77921  0.12426  0.13671  1.0000
  N   N29       1.0  0.75230  0.14378  0.26704  1.0000
  C   C177      1.0  0.74928  0.09570  0.33308  1.0000
  C   C178      1.0  0.90345  0.15117  0.16195  1.0000
  C   C179      1.0  0.89494  0.13836  0.25481  1.0000
  H   H130      1.0  0.90401  0.13240  0.11922  1.0000
  H   H131      1.0  0.92763  0.17372  0.15762  1.0000
  H   H132      1.0  0.88468  0.15659  0.13635  1.0000
  N   N30       1.0  0.86518  0.11020  0.26682  1.0000
  C   C180      1.0  0.91344  0.15531  0.33226  1.0000
  C   C181      1.0  0.96784  0.25967  0.35232  1.0000
  C   C182      1.0  0.93283  0.24265  0.34816  1.0000
  C   C183      1.0  0.91587  0.20791  0.34150  1.0000
  H   H133      1.0  0.97862  0.28414  0.36822  1.0000
  H   H134      1.0  0.89034  0.19514  0.34170  1.0000
  C   C184      1.0  0.59491  0.29918  0.34094  1.0000
  C   C185      1.0  0.57793  0.26444  0.34772  1.0000
  C   C186      1.0  0.54293  0.24745  0.35221  1.0000
  H   H135      1.0  0.62044  0.31194  0.34106  1.0000
  H   H136      1.0  0.53214  0.22300  0.36831  1.0000
  C   C187      1.0  0.74921  0.20991  0.35234  1.0000
  C   C188      1.0  0.76621  0.19191  0.34789  1.0000
  C   C189      1.0  0.80094  0.20967  0.34117  1.0000
  H   H137      1.0  0.72476  0.19625  0.36849  1.0000
  H   H138      1.0  0.81370  0.19690  0.34135  1.0000
  C   C190      1.0  0.70971  0.29746  0.34129  1.0000
  C   C191      1.0  0.74444  0.31522  0.34789  1.0000
  C   C192      1.0  0.76145  0.29722  0.35223  1.0000
  H   H139      1.0  0.69695  0.31023  0.34150  1.0000
  H   H140      1.0  0.78592  0.31090  0.36812  1.0000
  C   C193      1.0  0.79906  0.04112  0.35168  1.0000
  C   C194      1.0  0.81709  0.07613  0.34799  1.0000
  C   C195      1.0  0.79936  0.09314  0.34178  1.0000
  H   H141      1.0  0.81271  0.03028  0.36735  1.0000
  H   H142      1.0  0.81214  0.11867  0.34234  1.0000
  C   C196      1.0  0.71141  0.41412  0.34221  1.0000
  C   C197      1.0  0.69365  0.43111  0.34830  1.0000
  C   C198      1.0  0.71168  0.46613  0.35193  1.0000
  H   H143      1.0  0.69864  0.38859  0.34289  1.0000
  H   H144      1.0  0.69804  0.47696  0.36786  1.0000
  C   C199      1.0  0.59708  0.24858  0.34669  1.0000
  C   C200      1.0  0.61408  0.24752  0.42452  1.0000
  C   C201      1.0  0.60385  0.25012  0.51684  1.0000
  H   H145      1.0  0.60447  0.27372  0.52571  1.0000
  H   H146      1.0  0.62032  0.24868  0.56666  1.0000
  H   H147      1.0  0.57868  0.22982  0.52919  1.0000
  N   N31       1.0  0.64336  0.24801  0.41293  1.0000
  C   C202      1.0  0.76028  0.35021  0.34669  1.0000
  C   C203      1.0  0.76121  0.36826  0.42442  1.0000
  C   C204      1.0  0.75846  0.35546  0.51682  1.0000
  H   H148      1.0  0.73483  0.33249  0.52551  1.0000
  H   H149      1.0  0.75983  0.37337  0.56650  1.0000
  H   H150      1.0  0.77872  0.35056  0.52955  1.0000
  N   N32       1.0  0.76069  0.39702  0.41263  1.0000
  C   C205      1.0  0.65865  0.41201  0.34780  1.0000
  C   C206      1.0  0.64050  0.39459  0.42504  1.0000
  C   C207      1.0  0.65322  0.40451  0.51754  1.0000
  H   H151      1.0  0.67625  0.40397  0.52615  1.0000
  H   H152      1.0  0.63531  0.38781  0.56701  1.0000
  H   H153      1.0  0.65798  0.42960  0.53063  1.0000
  N   N33       1.0  0.61175  0.36533  0.41275  1.0000
  C   C208      1.0  0.91367  0.25848  0.34701  1.0000
  C   C209      1.0  0.89638  0.25937  0.42445  1.0000
  C   C210      1.0  0.90636  0.25661  0.51693  1.0000
  H   H154      1.0  0.90572  0.23300  0.52568  1.0000
  H   H155      1.0  0.88977  0.25796  0.56648  1.0000
  H   H156      1.0  0.93151  0.27689  0.52980  1.0000
  N   N34       1.0  0.86716  0.25895  0.41246  1.0000
  C   C211      1.0  0.75035  0.15691  0.34693  1.0000
  C   C212      1.0  0.74935  0.13890  0.42478  1.0000
  C   C213      1.0  0.75192  0.15171  0.51709  1.0000
  H   H157      1.0  0.77550  0.17472  0.52594  1.0000
  H   H158      1.0  0.75053  0.13383  0.56692  1.0000
  H   H159      1.0  0.73159  0.15653  0.52945  1.0000
  N   N35       1.0  0.74992  0.11015  0.41318  1.0000
  C   C214      1.0  0.85210  0.09526  0.34687  1.0000
  C   C215      1.0  0.87016  0.11243  0.42452  1.0000
  C   C216      1.0  0.85737  0.10244  0.51696  1.0000
  H   H160      1.0  0.83440  0.10310  0.52563  1.0000
  H   H161      1.0  0.87530  0.11901  0.56656  1.0000
  H   H162      1.0  0.85247  0.07728  0.52980  1.0000
  N   N36       1.0  0.89894  0.14168  0.41255  1.0000
  C   C217      1.0  0.98737  0.74400  0.33924  1.0000
  C   C218      1.0  0.93308  0.69032  0.33453  1.0000
  C   C219      1.0  0.96826  0.70845  0.32717  1.0000
  C   C220      1.0  0.52341  0.76313  0.33919  1.0000
  C   C221      1.0  0.54253  0.79869  0.32717  1.0000
  C   C222      1.0  0.57772  0.81679  0.33426  1.0000
  O   O19       1.0  0.98170  0.68967  0.30062  1.0000
  O   O20       1.0  0.52909  0.81748  0.30081  1.0000
  H   H163      1.0  0.98756  0.69482  0.23686  1.0000
  H   H164      1.0  0.52329  0.81242  0.23699  1.0000
  C   C223      1.0  0.76489  0.74511  0.33923  1.0000
  C   C224      1.0  0.81855  0.74447  0.33433  1.0000
  C   C225      1.0  0.80044  0.76153  0.32702  1.0000
  C   C226      1.0  0.74576  0.76202  0.33926  1.0000
  C   C227      1.0  0.71019  0.74557  0.32735  1.0000
  C   C228      1.0  0.69210  0.76267  0.33441  1.0000
  O   O21       1.0  0.81922  0.79377  0.30060  1.0000
  O   O22       1.0  0.69137  0.71333  0.30110  1.0000
  H   H165      1.0  0.81411  0.79450  0.23682  1.0000
  H   H166      1.0  0.69647  0.71253  0.23735  1.0000
  C   C229      1.0  0.76385  0.52165  0.33869  1.0000
  C   C230      1.0  0.76457  0.57598  0.33450  1.0000
  C   C231      1.0  0.74746  0.54082  0.32693  1.0000
  C   C232      1.0  0.74687  0.98560  0.33871  1.0000
  C   C233      1.0  0.76326  0.96644  0.32668  1.0000
  C   C234      1.0  0.74619  0.93129  0.33471  1.0000
  O   O23       1.0  0.71522  0.52746  0.30058  1.0000
  O   O24       1.0  0.79543  0.97980  0.29977  1.0000
  H   H167      1.0  0.71443  0.52155  0.23684  1.0000
  H   H168      1.0  0.79608  0.98571  0.23607  1.0000
  C   C235      1.0  0.65316  0.75322  0.16212  1.0000
  C   C236      1.0  0.64030  0.74892  0.25493  1.0000
  H   H169      1.0  0.63438  0.73391  0.11932  1.0000
  H   H170      1.0  0.67567  0.75151  0.15786  1.0000
  H   H171      1.0  0.65865  0.77744  0.13653  1.0000
  N   N37       1.0  0.61214  0.75053  0.26677  1.0000
  C   C237      1.0  0.65708  0.74733  0.33273  1.0000
  C   C238      1.0  0.75573  0.90170  0.16216  1.0000
  C   C239      1.0  0.76003  0.89318  0.25500  1.0000
  H   H172      1.0  0.77509  0.90231  0.11942  1.0000
  H   H173      1.0  0.75733  0.92587  0.15786  1.0000
  H   H174      1.0  0.73155  0.88291  0.13650  1.0000
  N   N38       1.0  0.75843  0.86342  0.26683  1.0000
  C   C240      1.0  0.76151  0.91162  0.33255  1.0000
  C   C241      1.0  0.60768  0.85613  0.16213  1.0000
  C   C242      1.0  0.61596  0.86886  0.25510  1.0000
  H   H175      1.0  0.60717  0.87492  0.11934  1.0000
  H   H176      1.0  0.58352  0.83357  0.15745  1.0000
  H   H177      1.0  0.62653  0.85077  0.13687  1.0000
  N   N39       1.0  0.64566  0.89704  0.26761  1.0000
  C   C243      1.0  0.59737  0.85180  0.33230  1.0000
  C   C244      1.0  0.85775  0.75390  0.16190  1.0000
  C   C245      1.0  0.87052  0.75827  0.25480  1.0000
  H   H178      1.0  0.87654  0.77318  0.11910  1.0000
  H   H179      1.0  0.83522  0.75558  0.15741  1.0000
  H   H180      1.0  0.85229  0.72967  0.13650  1.0000
  N   N40       1.0  0.89864  0.75661  0.26705  1.0000
  C   C246      1.0  0.85356  0.75983  0.33216  1.0000
  C   C247      1.0  0.75503  0.60549  0.16242  1.0000
  C   C248      1.0  0.75077  0.61405  0.25527  1.0000
  H   H181      1.0  0.73567  0.60489  0.11973  1.0000
  H   H182      1.0  0.75340  0.58131  0.15812  1.0000
  H   H183      1.0  0.77921  0.62426  0.13671  1.0000
  N   N41       1.0  0.75230  0.64379  0.26704  1.0000
  C   C249      1.0  0.74928  0.59570  0.33308  1.0000
  C   C250      1.0  0.90345  0.65117  0.16195  1.0000
  C   C251      1.0  0.89494  0.63836  0.25481  1.0000
  H   H184      1.0  0.90402  0.63240  0.11922  1.0000
  H   H185      1.0  0.92763  0.67372  0.15762  1.0000
  H   H186      1.0  0.88468  0.65659  0.13635  1.0000
  N   N42       1.0  0.86518  0.61020  0.26682  1.0000
  C   C252      1.0  0.91344  0.65531  0.33226  1.0000
  C   C253      1.0  0.96784  0.75967  0.35232  1.0000
  C   C254      1.0  0.93283  0.74265  0.34816  1.0000
  C   C255      1.0  0.91587  0.70791  0.34150  1.0000
  H   H187      1.0  0.97862  0.78414  0.36822  1.0000
  H   H188      1.0  0.89034  0.69514  0.34170  1.0000
  C   C256      1.0  0.59491  0.79917  0.34094  1.0000
  C   C257      1.0  0.57793  0.76444  0.34772  1.0000
  C   C258      1.0  0.54293  0.74745  0.35221  1.0000
  H   H189      1.0  0.62044  0.81194  0.34106  1.0000
  H   H190      1.0  0.53214  0.72300  0.36831  1.0000
  C   C259      1.0  0.74921  0.70991  0.35234  1.0000
  C   C260      1.0  0.76621  0.69191  0.34789  1.0000
  C   C261      1.0  0.80094  0.70967  0.34117  1.0000
  H   H191      1.0  0.72476  0.69625  0.36849  1.0000
  H   H192      1.0  0.81371  0.69690  0.34135  1.0000
  C   C262      1.0  0.70971  0.79746  0.34129  1.0000
  C   C263      1.0  0.74444  0.81522  0.34789  1.0000
  C   C264      1.0  0.76145  0.79722  0.35223  1.0000
  H   H193      1.0  0.69695  0.81024  0.34150  1.0000
  H   H194      1.0  0.78592  0.81090  0.36812  1.0000
  C   C265      1.0  0.79906  0.54112  0.35168  1.0000
  C   C266      1.0  0.81709  0.57613  0.34799  1.0000
  C   C267      1.0  0.79936  0.59314  0.34178  1.0000
  H   H195      1.0  0.81272  0.53028  0.36735  1.0000
  H   H196      1.0  0.81214  0.61867  0.34234  1.0000
  C   C268      1.0  0.71141  0.91412  0.34221  1.0000
  C   C269      1.0  0.69365  0.93111  0.34830  1.0000
  C   C270      1.0  0.71167  0.96613  0.35193  1.0000
  H   H197      1.0  0.69863  0.88859  0.34289  1.0000
  H   H198      1.0  0.69803  0.97696  0.36786  1.0000
  C   C271      1.0  0.59708  0.74858  0.34669  1.0000
  C   C272      1.0  0.61408  0.74752  0.42452  1.0000
  C   C273      1.0  0.60386  0.75012  0.51684  1.0000
  H   H199      1.0  0.60447  0.77372  0.52571  1.0000
  H   H200      1.0  0.62032  0.74868  0.56666  1.0000
  H   H201      1.0  0.57868  0.72982  0.52919  1.0000
  N   N43       1.0  0.64335  0.74801  0.41293  1.0000
  C   C274      1.0  0.76028  0.85021  0.34669  1.0000
  C   C275      1.0  0.76121  0.86826  0.42442  1.0000
  C   C276      1.0  0.75845  0.85546  0.51682  1.0000
  H   H202      1.0  0.73483  0.83249  0.52551  1.0000
  H   H203      1.0  0.75983  0.87337  0.56650  1.0000
  H   H204      1.0  0.77872  0.85056  0.52955  1.0000
  N   N44       1.0  0.76069  0.89702  0.41263  1.0000
  C   C277      1.0  0.65865  0.91201  0.34780  1.0000
  C   C278      1.0  0.64050  0.89459  0.42504  1.0000
  C   C279      1.0  0.65322  0.90451  0.51754  1.0000
  H   H205      1.0  0.67625  0.90397  0.52615  1.0000
  H   H206      1.0  0.63531  0.88781  0.56701  1.0000
  H   H207      1.0  0.65798  0.92960  0.53063  1.0000
  N   N45       1.0  0.61175  0.86533  0.41275  1.0000
  C   C280      1.0  0.91367  0.75847  0.34701  1.0000
  C   C281      1.0  0.89638  0.75937  0.42445  1.0000
  C   C282      1.0  0.90636  0.75661  0.51693  1.0000
  H   H208      1.0  0.90572  0.73300  0.52568  1.0000
  H   H209      1.0  0.88977  0.75796  0.56648  1.0000
  H   H210      1.0  0.93151  0.77689  0.52980  1.0000
  N   N46       1.0  0.86716  0.75895  0.41246  1.0000
  C   C283      1.0  0.75035  0.65691  0.34693  1.0000
  C   C284      1.0  0.74935  0.63890  0.42478  1.0000
  C   C285      1.0  0.75192  0.65171  0.51709  1.0000
  H   H211      1.0  0.77549  0.67472  0.52594  1.0000
  H   H212      1.0  0.75053  0.63383  0.56692  1.0000
  H   H213      1.0  0.73159  0.65653  0.52945  1.0000
  N   N47       1.0  0.74992  0.61015  0.41318  1.0000
  C   C286      1.0  0.85210  0.59526  0.34687  1.0000
  C   C287      1.0  0.87016  0.61243  0.42452  1.0000
  C   C288      1.0  0.85737  0.60244  0.51696  1.0000
  H   H214      1.0  0.83440  0.60310  0.52563  1.0000
  H   H215      1.0  0.87530  0.61901  0.56656  1.0000
  H   H216      1.0  0.85247  0.57728  0.52980  1.0000
  N   N48       1.0  0.89894  0.64168  0.41255  1.0000
