data_image0
_chemical_formula_structural       C2NH2CHCHCHC2HCHC2HC2HC3NH4C6N2H6C6N2H6CNC2HNHCNC4H2NH2NC4HNH2CNC4H2NH2CNC4H2NH2CNC4H2NH2C3HN2H2C3HNC3NH3C3HNC3NH3C4HN2H2C4HCNHNH2C3NHNHC4HCNHNH2C4HCNHNH2C4HCNHNH2
_chemical_formula_sum              "C96 N36 H78"
_cell_length_a       31.3881
_cell_length_b       31.388
_cell_length_c       14.8353
_cell_angle_alpha    90
_cell_angle_beta     90
_cell_angle_gamma    120

_space_group_name_H-M_alt    "P 1"
_space_group_IT_number       1

loop_
  _space_group_symop_operation_xyz
  'x, y, z'

loop_
  _atom_site_type_symbol
  _atom_site_label
  _atom_site_symmetry_multiplicity
  _atom_site_fract_x
  _atom_site_fract_y
  _atom_site_fract_z
  _atom_site_occupancy
  C   C1        1.0  0.03517  0.52007  0.33391  1.0000
  C   C2        1.0  0.06336  0.57166  0.31202  1.0000
  N   N1        1.0  0.04226  0.59405  0.26578  1.0000
  H   H1        1.0  0.06111  0.62802  0.24587  1.0000
  H   H2        1.0  0.01066  0.57473  0.23623  1.0000
  C   C3        1.0  0.06289  0.49764  0.36135  1.0000
  H   H3        1.0  0.04494  0.46110  0.37766  1.0000
  C   C4        1.0  0.11504  0.59957  0.33204  1.0000
  H   H4        1.0  0.12930  0.47924  0.22467  1.0000
  C   C5        1.0  0.11489  0.52268  0.36414  1.0000
  H   H5        1.0  0.12451  0.66370  0.45876  1.0000
  C   C6        1.0  0.14842  0.47861  0.28018  1.0000
  C   C7        1.0  0.13996  0.49491  0.36358  1.0000
  H   H6        1.0  0.16730  0.44376  0.13823  1.0000
  C   C8        1.0  0.17508  0.67689  0.25575  1.0000
  H   H7        1.0  0.17569  0.65789  0.20028  1.0000
  C   C9        1.0  0.14143  0.57486  0.35533  1.0000
  C   C10       1.0  0.16800  0.49462  0.43763  1.0000
  H   H8        1.0  0.16578  0.50857  0.49857  1.0000
  C   C11       1.0  0.14210  0.65248  0.32726  1.0000
  C   C12       1.0  0.14707  0.68077  0.40482  1.0000
  H   H9        1.0  0.16114  0.74068  0.53521  1.0000
  C   C13       1.0  0.98077  0.49057  0.33355  1.0000
  C   C14       1.0  0.90081  0.41119  0.32978  1.0000
  C   C15       1.0  0.95261  0.43910  0.31072  1.0000
  N   N2        1.0  0.97389  0.41685  0.26457  1.0000
  H   H10       1.0  0.00547  0.43640  0.23511  1.0000
  H   H11       1.0  0.95478  0.38314  0.24343  1.0000
  H   H12       1.0  0.21076  0.63598  0.36711  1.0000
  H   H13       1.0  0.80477  0.37489  0.36139  1.0000
  C   C16       1.0  0.52297  0.49304  0.33471  1.0000
  C   C17       1.0  0.60257  0.49289  0.33300  1.0000
  C   C18       1.0  0.57452  0.51645  0.31250  1.0000
  C   C19       1.0  0.49344  0.51790  0.33407  1.0000
  C   C20       1.0  0.44194  0.49454  0.31141  1.0000
  C   C21       1.0  0.41410  0.51856  0.32996  1.0000
  N   N3        1.0  0.59669  0.55971  0.26555  1.0000
  N   N4        1.0  0.41963  0.45087  0.26576  1.0000
  H   H14       1.0  0.57731  0.57188  0.23590  1.0000
  H   H15       1.0  0.63065  0.57481  0.24551  1.0000
  H   H16       1.0  0.38580  0.43602  0.24510  1.0000
  H   H17       1.0  0.43896  0.43843  0.23687  1.0000
  H   H18       1.0  0.37795  0.57854  0.36067  1.0000
  H   H19       1.0  0.63928  0.43398  0.36935  1.0000
  C   C22       1.0  0.52061  0.03245  0.33373  1.0000
  C   C23       1.0  0.52126  0.11247  0.33052  1.0000
  C   C24       1.0  0.49726  0.06066  0.31152  1.0000
  C   C25       1.0  0.49568  0.97806  0.33411  1.0000
  C   C26       1.0  0.51898  0.94985  0.31151  1.0000
  C   C27       1.0  0.49525  0.89817  0.33149  1.0000
  N   N5        1.0  0.45355  0.03943  0.26597  1.0000
  N   N6        1.0  0.56234  0.97098  0.26484  1.0000
  H   H20       1.0  0.44132  0.00778  0.23660  1.0000
  H   H21       1.0  0.43863  0.05835  0.24547  1.0000
  H   H22       1.0  0.57698  0.95188  0.24386  1.0000
  H   H23       1.0  0.57414  0.00240  0.23488  1.0000
  H   H24       1.0  0.43595  0.80239  0.36609  1.0000
  H   H25       1.0  0.58117  0.20847  0.36241  1.0000
  C   C28       1.0  0.33640  0.50052  0.25371  1.0000
  N   N7        1.0  0.28942  0.49066  0.26526  1.0000
  C   C29       1.0  0.21524  0.46959  0.34491  1.0000
  C   C30       1.0  0.18483  0.46471  0.26946  1.0000
  H   H26       1.0  0.35517  0.51951  0.19757  1.0000
  N   N8        1.0  0.18952  0.44796  0.18759  1.0000
  H   H27       1.0  0.21019  0.43337  0.17956  1.0000
  C   C31       1.0  0.51276  0.83829  0.25505  1.0000
  N   N9        1.0  0.52279  0.80127  0.26634  1.0000
  C   C32       1.0  0.54453  0.74865  0.34537  1.0000
  C   C33       1.0  0.55008  0.72350  0.27006  1.0000
  C   C34       1.0  0.53613  0.67316  0.28033  1.0000
  C   C35       1.0  0.51895  0.64802  0.36319  1.0000
  H   H28       1.0  0.53595  0.65366  0.22478  1.0000
  H   H29       1.0  0.49309  0.83759  0.19960  1.0000
  N   N10       1.0  0.56752  0.74537  0.18874  1.0000
  H   H30       1.0  0.58141  0.78054  0.18062  1.0000
  H   H31       1.0  0.57171  0.72754  0.13901  1.0000
  N   N11       1.0  0.21229  0.72383  0.26715  1.0000
  C   C36       1.0  0.26516  0.79827  0.34613  1.0000
  C   C37       1.0  0.29066  0.82862  0.27067  1.0000
  C   C38       1.0  0.34097  0.86497  0.28133  1.0000
  C   C39       1.0  0.36583  0.87335  0.36461  1.0000
  H   H32       1.0  0.36069  0.88405  0.22578  1.0000
  N   N12       1.0  0.26915  0.82395  0.18887  1.0000
  H   H33       1.0  0.23399  0.80281  0.18039  1.0000
  H   H34       1.0  0.28724  0.84575  0.13906  1.0000
  C   C40       1.0  0.67975  0.51007  0.25616  1.0000
  N   N13       1.0  0.72676  0.51997  0.26734  1.0000
  C   C41       1.0  0.80127  0.54183  0.34602  1.0000
  C   C42       1.0  0.83179  0.54717  0.27056  1.0000
  C   C43       1.0  0.86807  0.53307  0.28069  1.0000
  C   C44       1.0  0.87612  0.51592  0.36348  1.0000
  H   H35       1.0  0.88737  0.53290  0.22509  1.0000
  H   H36       1.0  0.66065  0.49027  0.20093  1.0000
  N   N14       1.0  0.82728  0.56457  0.18924  1.0000
  H   H37       1.0  0.80605  0.57852  0.18121  1.0000
  H   H38       1.0  0.84917  0.56860  0.13938  1.0000
  C   C45       1.0  0.50353  0.17242  0.25457  1.0000
  N   N15       1.0  0.49381  0.20961  0.26633  1.0000
  C   C46       1.0  0.47279  0.26270  0.34613  1.0000
  C   C47       1.0  0.46808  0.28837  0.27074  1.0000
  C   C48       1.0  0.48202  0.33867  0.28166  1.0000
  C   C49       1.0  0.49820  0.36331  0.36519  1.0000
  H   H39       1.0  0.48274  0.35850  0.22622  1.0000
  H   H40       1.0  0.52259  0.17270  0.19848  1.0000
  N   N16       1.0  0.45144  0.26706  0.18872  1.0000
  H   H41       1.0  0.43680  0.23181  0.18053  1.0000
  H   H42       1.0  0.44736  0.28519  0.13940  1.0000
  C   C50       1.0  0.84123  0.33348  0.25370  1.0000
  N   N17       1.0  0.80421  0.28644  0.26523  1.0000
  C   C51       1.0  0.75135  0.21225  0.34475  1.0000
  C   C52       1.0  0.72614  0.18151  0.26950  1.0000
  C   C53       1.0  0.67583  0.14509  0.27992  1.0000
  C   C54       1.0  0.65077  0.13704  0.36290  1.0000
  H   H43       1.0  0.65628  0.12576  0.22441  1.0000
  H   H44       1.0  0.84069  0.35224  0.19780  1.0000
  N   N18       1.0  0.74792  0.18590  0.18809  1.0000
  H   H45       1.0  0.78310  0.20712  0.17988  1.0000
  H   H46       1.0  0.73005  0.16385  0.13845  1.0000
  C   C55       1.0  0.95302  0.51291  0.36131  1.0000
  C   C56       1.0  0.90101  0.48800  0.36308  1.0000
  C   C57       1.0  0.87437  0.43589  0.35277  1.0000
  H   H47       1.0  0.97098  0.54933  0.37858  1.0000
  N   N19       1.0  0.82416  0.41042  0.36339  1.0000
  N   N20       1.0  0.19153  0.60042  0.36760  1.0000
  H   H48       1.0  0.21043  0.58457  0.38081  1.0000
  H   H49       1.0  0.80524  0.42632  0.37617  1.0000
  C   C58       1.0  0.50067  0.44299  0.36273  1.0000
  C   C59       1.0  0.52583  0.41615  0.36598  1.0000
  C   C60       1.0  0.57801  0.44190  0.35709  1.0000
  H   H50       1.0  0.46414  0.42437  0.37909  1.0000
  N   N21       1.0  0.60372  0.41756  0.36997  1.0000
  C   C61       1.0  0.43887  0.56978  0.35235  1.0000
  C   C62       1.0  0.49097  0.59520  0.36263  1.0000
  C   C63       1.0  0.51583  0.56806  0.36138  1.0000
  N   N22       1.0  0.41348  0.59463  0.36247  1.0000
  H   H51       1.0  0.55227  0.58654  0.37856  1.0000
  H   H52       1.0  0.42945  0.62952  0.37463  1.0000
  H   H53       1.0  0.58798  0.38291  0.38412  1.0000
  C   C64       1.0  0.57080  0.06017  0.36086  1.0000
  C   C65       1.0  0.59794  0.11218  0.36257  1.0000
  C   C66       1.0  0.57249  0.13887  0.35291  1.0000
  H   H54       1.0  0.58930  0.04219  0.37767  1.0000
  N   N23       1.0  0.59730  0.18907  0.36360  1.0000
  C   C67       1.0  0.44423  0.87178  0.35531  1.0000
  C   C68       1.0  0.41866  0.89835  0.36486  1.0000
  C   C69       1.0  0.44563  0.95035  0.36210  1.0000
  N   N24       1.0  0.41970  0.82167  0.36743  1.0000
  H   H55       1.0  0.42712  0.96832  0.37892  1.0000
  H   H56       1.0  0.38499  0.80281  0.38118  1.0000
  H   H57       1.0  0.63221  0.20800  0.37559  1.0000
  C   C70       1.0  0.36116  0.49268  0.32550  1.0000
  C   C71       1.0  0.26101  0.46941  0.33959  1.0000
  C   C72       1.0  0.28302  0.45707  0.41178  1.0000
  C   C73       1.0  0.33323  0.46999  0.40372  1.0000
  H   H58       1.0  0.35054  0.46494  0.45778  1.0000
  N   N25       1.0  0.20483  0.48444  0.42428  1.0000
  N   N26       1.0  0.25829  0.43397  0.48818  1.0000
  H   H59       1.0  0.27394  0.42507  0.53542  1.0000
  H   H60       1.0  0.22301  0.42040  0.49328  1.0000
  C   C74       1.0  0.52117  0.87118  0.32663  1.0000
  C   C75       1.0  0.54481  0.79460  0.34003  1.0000
  C   C76       1.0  0.55755  0.82912  0.41196  1.0000
  C   C77       1.0  0.54459  0.86638  0.40418  1.0000
  H   H61       1.0  0.55001  0.88893  0.45812  1.0000
  C   C78       1.0  0.51852  0.67598  0.43728  1.0000
  N   N27       1.0  0.52888  0.72306  0.42428  1.0000
  H   H62       1.0  0.50375  0.65938  0.49756  1.0000
  N   N28       1.0  0.58111  0.82762  0.48780  1.0000
  H   H63       1.0  0.59011  0.85213  0.53516  1.0000
  H   H64       1.0  0.59424  0.80554  0.49304  1.0000
  C   C79       1.0  0.21918  0.75256  0.34086  1.0000
  C   C80       1.0  0.18452  0.73093  0.41266  1.0000
  C   C81       1.0  0.33751  0.84529  0.43871  1.0000
  N   N29       1.0  0.29047  0.80849  0.42540  1.0000
  H   H65       1.0  0.35381  0.84719  0.49935  1.0000
  N   N30       1.0  0.18607  0.75602  0.48850  1.0000
  H   H66       1.0  0.20789  0.79131  0.49314  1.0000
  C   C82       1.0  0.65546  0.51880  0.32767  1.0000
  C   C83       1.0  0.75558  0.54207  0.34083  1.0000
  C   C84       1.0  0.73403  0.55518  0.41263  1.0000
  C   C85       1.0  0.68383  0.54234  0.40503  1.0000
  H   H67       1.0  0.66685  0.54803  0.45891  1.0000
  C   C86       1.0  0.84781  0.51558  0.43764  1.0000
  N   N31       1.0  0.81119  0.52613  0.42490  1.0000
  H   H68       1.0  0.84972  0.50099  0.49807  1.0000
  N   N32       1.0  0.75926  0.57892  0.48821  1.0000
  H   H69       1.0  0.74391  0.58816  0.53548  1.0000
  H   H70       1.0  0.79446  0.59191  0.49332  1.0000
  C   C87       1.0  0.49544  0.13958  0.32607  1.0000
  C   C88       1.0  0.47249  0.21669  0.34064  1.0000
  C   C89       1.0  0.45994  0.18217  0.41256  1.0000
  C   C90       1.0  0.47270  0.14478  0.40428  1.0000
  H   H71       1.0  0.46749  0.12227  0.45820  1.0000
  C   C91       1.0  0.49776  0.33485  0.43915  1.0000
  N   N33       1.0  0.48753  0.28784  0.42565  1.0000
  H   H72       1.0  0.51159  0.35093  0.50022  1.0000
  N   N34       1.0  0.43672  0.18369  0.48889  1.0000
  H   H73       1.0  0.42785  0.15914  0.53613  1.0000
  H   H74       1.0  0.42344  0.20563  0.49442  1.0000
  C   C92       1.0  0.87386  0.35827  0.32546  1.0000
  C   C93       1.0  0.79730  0.25798  0.33938  1.0000
  C   C94       1.0  0.83160  0.28005  0.41156  1.0000
  C   C95       1.0  0.86879  0.33029  0.40352  1.0000
  H   H75       1.0  0.89116  0.34762  0.45757  1.0000
  C   C96       1.0  0.67881  0.16541  0.43693  1.0000
  N   N35       1.0  0.72584  0.20222  0.42376  1.0000
  H   H76       1.0  0.66228  0.16353  0.49732  1.0000
  N   N36       1.0  0.83000  0.25530  0.48790  1.0000
  H   H77       1.0  0.85438  0.27103  0.53539  1.0000
  H   H78       1.0  0.80809  0.22007  0.49335  1.0000
