data_image0
_chemical_formula_structural       C3NC3NC5NC5NC20H18C4H4C6H2N2O4NC6H2N2O4NC8H8C2HC4HNH2NH2NC2HC4HNH2NH2N
_chemical_formula_sum              "C72 N16 H46 O8"
_cell_length_a       29.725
_cell_length_b       29.7249
_cell_length_c       14.955
_cell_angle_alpha    90
_cell_angle_beta     90
_cell_angle_gamma    90.0329

_space_group_name_H-M_alt    "P 1"
_space_group_IT_number       1

loop_
  _space_group_symop_operation_xyz
  'x, y, z'

loop_
  _atom_site_type_symbol
  _atom_site_label
  _atom_site_symmetry_multiplicity
  _atom_site_fract_x
  _atom_site_fract_y
  _atom_site_fract_z
  _atom_site_occupancy
  C   C1        1.0  0.92150  0.88179  0.31468  1.0000
  C   C2        1.0  0.88734  0.91319  0.31367  1.0000
  C   C3        1.0  0.90667  0.95608  0.31279  1.0000
  N   N1        1.0  0.95175  0.94900  0.31491  1.0000
  C   C4        1.0  0.96259  0.90467  0.31549  1.0000
  C   C5        1.0  0.00563  0.88369  0.31560  1.0000
  C   C6        1.0  0.04731  0.90706  0.31661  1.0000
  N   N2        1.0  0.05414  0.95202  0.31788  1.0000
  C   C7        1.0  0.09839  0.96255  0.31696  1.0000
  C   C8        1.0  0.12143  0.92158  0.31555  1.0000
  C   C9        1.0  0.08997  0.88741  0.31565  1.0000
  C   C10       1.0  0.11822  0.00605  0.31549  1.0000
  C   C11       1.0  0.09377  0.04722  0.31433  1.0000
  N   N3        1.0  0.04870  0.05440  0.31589  1.0000
  C   C12       1.0  0.03789  0.09870  0.31176  1.0000
  C   C13       1.0  0.07901  0.12147  0.30857  1.0000
  C   C14       1.0  0.11316  0.09002  0.31045  1.0000
  C   C15       1.0  0.99483  0.11966  0.30958  1.0000
  C   C16       1.0  0.95313  0.09621  0.30992  1.0000
  N   N4        1.0  0.94626  0.05125  0.31139  1.0000
  C   C17       1.0  0.90201  0.04068  0.31011  1.0000
  C   C18       1.0  0.87894  0.08158  0.30752  1.0000
  C   C19       1.0  0.91039  0.11575  0.30819  1.0000
  C   C20       1.0  0.88214  0.99721  0.31017  1.0000
  C   C21       1.0  0.83421  0.99464  0.30566  1.0000
  C   C22       1.0  0.73885  0.98562  0.29773  1.0000
  C   C23       1.0  0.76558  0.97843  0.22081  1.0000
  C   C24       1.0  0.81265  0.98325  0.22452  1.0000
  C   C25       1.0  0.99312  0.16763  0.30480  1.0000
  C   C26       1.0  0.98506  0.26306  0.29686  1.0000
  C   C27       1.0  0.97827  0.23645  0.21963  1.0000
  C   C28       1.0  0.98264  0.18934  0.22335  1.0000
  C   C29       1.0  0.16605  0.00822  0.30858  1.0000
  C   C30       1.0  0.18652  0.01325  0.22398  1.0000
  C   C31       1.0  0.23364  0.01278  0.21559  1.0000
  C   C32       1.0  0.26175  0.00722  0.29130  1.0000
  C   C33       1.0  0.00712  0.83584  0.30881  1.0000
  C   C34       1.0  0.01214  0.81535  0.22423  1.0000
  C   C35       1.0  0.00559  0.74017  0.29155  1.0000
  C   C36       1.0  0.01141  0.76823  0.21586  1.0000
  H   H1        1.0  0.01462  0.75464  0.15327  1.0000
  H   H2        1.0  0.01568  0.83463  0.16794  1.0000
  H   H3        1.0  0.91648  0.84779  0.31466  1.0000
  H   H4        1.0  0.85389  0.90531  0.31302  1.0000
  H   H5        1.0  0.97361  0.97276  0.31426  1.0000
  H   H6        1.0  0.02683  0.03069  0.31900  1.0000
  H   H7        1.0  0.09751  0.85389  0.31420  1.0000
  H   H8        1.0  0.15544  0.91675  0.31377  1.0000
  H   H9        1.0  0.16722  0.01648  0.16764  1.0000
  H   H10       1.0  0.24722  0.01594  0.15297  1.0000
  H   H11       1.0  0.14664  0.09774  0.30819  1.0000
  H   H12       1.0  0.08403  0.15540  0.30418  1.0000
  H   H13       1.0  0.84493  0.08637  0.30561  1.0000
  H   H14       1.0  0.90272  0.14924  0.30687  1.0000
  H   H15       1.0  0.97708  0.17089  0.16663  1.0000
  H   H16       1.0  0.96978  0.25111  0.16000  1.0000
  H   H17       1.0  0.83118  0.97750  0.16797  1.0000
  H   H18       1.0  0.75103  0.96941  0.16138  1.0000
  C   C37       1.0  0.97828  0.30908  0.29295  1.0000
  C   C38       1.0  0.30817  0.00459  0.27973  1.0000
  C   C39       1.0  0.00282  0.69376  0.27999  1.0000
  C   C40       1.0  0.69285  0.97869  0.29377  1.0000
  H   H19       1.0  0.95105  0.32058  0.26160  1.0000
  H   H20       1.0  0.32008  0.99837  0.21870  1.0000
  H   H21       1.0  0.99624  0.68189  0.21908  1.0000
  H   H22       1.0  0.68139  0.95139  0.26253  1.0000
  C   C41       1.0  0.00447  0.38144  0.32755  1.0000
  C   C42       1.0  0.01398  0.40793  0.25082  1.0000
  C   C43       1.0  0.01310  0.45520  0.25831  1.0000
  C   C44       1.0  0.00307  0.47690  0.34011  1.0000
  C   C45       1.0  0.96998  0.55031  0.29681  1.0000
  C   C46       1.0  0.97255  0.59781  0.29843  1.0000
  H   H23       1.0  0.94797  0.61597  0.26698  1.0000
  H   H24       1.0  0.02032  0.47415  0.20286  1.0000
  N   N5        1.0  0.93429  0.52786  0.25260  1.0000
  N   N6        1.0  0.02533  0.39044  0.16580  1.0000
  O   O1        1.0  0.93371  0.53694  0.17055  1.0000
  O   O2        1.0  0.99307  0.36963  0.13081  1.0000
  O   O3        1.0  0.89682  0.53809  0.28576  1.0000
  O   O4        1.0  0.05907  0.36507  0.16911  1.0000
  N   N7        1.0  0.00666  0.33679  0.32724  1.0000
  C   C47       1.0  0.62044  0.00487  0.32782  1.0000
  C   C48       1.0  0.59402  0.01449  0.25106  1.0000
  C   C49       1.0  0.54675  0.01372  0.25845  1.0000
  C   C50       1.0  0.52498  0.00373  0.34020  1.0000
  C   C51       1.0  0.45142  0.97094  0.29666  1.0000
  C   C52       1.0  0.40393  0.97369  0.29825  1.0000
  H   H25       1.0  0.38566  0.94921  0.26667  1.0000
  H   H26       1.0  0.52786  0.02101  0.20296  1.0000
  N   N8        1.0  0.47372  0.93522  0.25236  1.0000
  N   N9        1.0  0.61162  0.02583  0.16611  1.0000
  O   O5        1.0  0.46465  0.93474  0.17030  1.0000
  O   O6        1.0  0.63243  0.99356  0.13123  1.0000
  O   O7        1.0  0.46331  0.89776  0.28539  1.0000
  O   O8        1.0  0.63704  0.05956  0.16952  1.0000
  N   N10       1.0  0.66508  0.00711  0.32766  1.0000
  C   C53       1.0  0.80761  0.00188  0.38263  1.0000
  C   C54       1.0  0.76046  0.99764  0.37862  1.0000
  C   C55       1.0  0.00008  0.19413  0.38203  1.0000
  C   C56       1.0  0.99627  0.24132  0.37803  1.0000
  C   C57       1.0  0.24093  0.00258  0.37609  1.0000
  C   C58       1.0  0.19372  0.00309  0.38467  1.0000
  C   C59       1.0  0.00176  0.80822  0.38491  1.0000
  C   C60       1.0  0.00098  0.76101  0.37633  1.0000
  H   H27       1.0  0.99604  0.74207  0.43260  1.0000
  H   H28       1.0  0.99754  0.82231  0.44677  1.0000
  H   H29       1.0  0.17966  0.99881  0.44657  1.0000
  H   H30       1.0  0.25988  0.99781  0.43240  1.0000
  H   H31       1.0  0.00723  0.17919  0.44203  1.0000
  H   H32       1.0  0.00059  0.25954  0.43547  1.0000
  H   H33       1.0  0.74216  0.00226  0.43587  1.0000
  H   H34       1.0  0.82245  0.00971  0.44240  1.0000
  C   C61       1.0  0.99397  0.45040  0.41739  1.0000
  C   C62       1.0  0.99539  0.40293  0.40965  1.0000
  H   H35       1.0  0.98913  0.38348  0.46483  1.0000
  C   C63       1.0  0.00340  0.52487  0.34157  1.0000
  C   C64       1.0  0.00790  0.62060  0.34275  1.0000
  C   C65       1.0  0.04090  0.59520  0.38931  1.0000
  C   C66       1.0  0.03831  0.54763  0.38715  1.0000
  H   H36       1.0  0.06249  0.52915  0.41928  1.0000
  N   N11       1.0  0.98335  0.46871  0.49813  1.0000
  H   H37       1.0  0.97670  0.44987  0.54973  1.0000
  H   H38       1.0  0.98026  0.50096  0.50631  1.0000
  N   N12       1.0  0.07522  0.61508  0.43480  1.0000
  H   H39       1.0  0.09768  0.59728  0.46629  1.0000
  H   H40       1.0  0.07836  0.64759  0.43781  1.0000
  N   N13       1.0  0.00946  0.66549  0.34387  1.0000
  C   C67       1.0  0.55140  0.99454  0.41753  1.0000
  C   C68       1.0  0.59888  0.99584  0.40987  1.0000
  H   H41       1.0  0.61828  0.98956  0.46511  1.0000
  C   C69       1.0  0.47701  0.00423  0.34159  1.0000
  C   C70       1.0  0.38131  0.00906  0.34272  1.0000
  C   C71       1.0  0.40685  0.04193  0.38943  1.0000
  C   C72       1.0  0.45440  0.03918  0.38728  1.0000
  H   H42       1.0  0.47299  0.06326  0.41955  1.0000
  N   N14       1.0  0.53302  0.98395  0.49821  1.0000
  H   H43       1.0  0.55181  0.97723  0.54984  1.0000
  H   H44       1.0  0.50075  0.98092  0.50633  1.0000
  N   N15       1.0  0.38711  0.07625  0.43508  1.0000
  H   H45       1.0  0.40500  0.09863  0.46665  1.0000
  H   H46       1.0  0.35461  0.07951  0.43805  1.0000
  N   N16       1.0  0.33643  0.01072  0.34386  1.0000
