data_image0
_chemical_formula_structural       C2NC2NC2NC2N2CHNCHNCHNCHC2NC2NC2NC2NC2NC2NC2NC2N2CHNCHNCHNCHC2NC2NC2NC2NC2NC2NC2NC2NC6H3C6H3C6H3C6H3C6H3C6H3C6H3C6H3C6H3C6H3C6H3C6H3NCHNCHC2NC2NC2NC2NC2NC2NC2NC2N2CHNCHNCHNCHC2NC2NC2NC2NC2NC2NC2NC2N2CHNCHNCHNCH
_chemical_formula_sum              "C162 N54 H54"
_cell_length_a       34.2708
_cell_length_b       34.1123
_cell_length_c       14.9266
_cell_angle_alpha    90
_cell_angle_beta     90
_cell_angle_gamma    90.27

_space_group_name_H-M_alt    "P 1"
_space_group_IT_number       1

loop_
  _space_group_symop_operation_xyz
  'x, y, z'

loop_
  _atom_site_type_symbol
  _atom_site_label
  _atom_site_symmetry_multiplicity
  _atom_site_fract_x
  _atom_site_fract_y
  _atom_site_fract_z
  _atom_site_occupancy
  C   C1        1.0  0.97200  0.53001  0.32601  1.0000
  C   C2        1.0  0.02837  0.47012  0.33543  1.0000
  N   N1        1.0  0.03335  0.50242  0.28316  1.0000
  C   C3        1.0  0.00728  0.53211  0.27592  1.0000
  C   C4        1.0  0.01597  0.55944  0.21846  1.0000
  N   N2        1.0  0.02374  0.58352  0.16766  1.0000
  C   C5        1.0  0.47005  0.97134  0.32902  1.0000
  C   C6        1.0  0.52818  0.02925  0.33664  1.0000
  N   N3        1.0  0.52550  0.00411  0.26622  1.0000
  C   C7        1.0  0.49793  0.97552  0.25926  1.0000
  C   C8        1.0  0.49687  0.95575  0.18479  1.0000
  N   N4        1.0  0.49528  0.93900  0.11815  1.0000
  N   N5        1.0  0.08868  0.30521  0.29683  1.0000
  C   C9        1.0  0.08326  0.26589  0.29273  1.0000
  H   H1        1.0  0.10067  0.24975  0.25140  1.0000
  N   N6        1.0  0.91051  0.69481  0.29261  1.0000
  C   C10       1.0  0.91585  0.73417  0.28960  1.0000
  H   H2        1.0  0.89834  0.75057  0.24903  1.0000
  N   N7        1.0  0.69336  0.08913  0.28983  1.0000
  C   C11       1.0  0.73256  0.08389  0.28709  1.0000
  H   H3        1.0  0.74899  0.10164  0.24680  1.0000
  N   N8        1.0  0.30529  0.91011  0.29786  1.0000
  C   C12       1.0  0.26611  0.91524  0.29468  1.0000
  H   H4        1.0  0.24982  0.89751  0.25400  1.0000
  C   C13       1.0  0.43260  0.83083  0.32633  1.0000
  C   C14       1.0  0.44703  0.74939  0.33124  1.0000
  N   N9        1.0  0.46865  0.77431  0.28000  1.0000
  C   C15       1.0  0.46302  0.81366  0.27488  1.0000
  C   C16       1.0  0.48493  0.83219  0.21766  1.0000
  N   N10       1.0  0.50453  0.84808  0.16678  1.0000
  C   C17       1.0  0.56639  0.16913  0.33183  1.0000
  C   C18       1.0  0.55243  0.25056  0.33472  1.0000
  N   N11       1.0  0.53014  0.22544  0.28553  1.0000
  C   C19       1.0  0.53553  0.18604  0.28138  1.0000
  C   C20       1.0  0.51299  0.16703  0.22621  1.0000
  N   N12       1.0  0.49305  0.15037  0.17732  1.0000
  C   C21       1.0  0.83127  0.56631  0.32754  1.0000
  C   C22       1.0  0.74980  0.55301  0.33219  1.0000
  N   N13       1.0  0.77423  0.53057  0.28203  1.0000
  C   C23       1.0  0.81357  0.53561  0.27713  1.0000
  C   C24       1.0  0.83177  0.51304  0.22097  1.0000
  N   N14       1.0  0.84767  0.49302  0.17119  1.0000
  C   C25       1.0  0.16849  0.43304  0.33056  1.0000
  C   C26       1.0  0.24990  0.44666  0.33374  1.0000
  N   N15       1.0  0.22525  0.46894  0.28378  1.0000
  C   C27       1.0  0.18591  0.46371  0.27955  1.0000
  C   C28       1.0  0.16740  0.48616  0.22364  1.0000
  N   N16       1.0  0.15121  0.50605  0.17409  1.0000
  N   N17       1.0  0.11871  0.05145  0.25601  1.0000
  C   C29       1.0  0.09681  0.08414  0.24875  1.0000
  H   H5        1.0  0.07838  0.08700  0.19532  1.0000
  N   N18       1.0  0.86774  0.93981  0.26511  1.0000
  C   C30       1.0  0.88890  0.90638  0.25973  1.0000
  H   H6        1.0  0.89791  0.89655  0.19848  1.0000
  N   N19       1.0  0.95019  0.11327  0.25734  1.0000
  C   C31       1.0  0.91711  0.09181  0.24923  1.0000
  H   H7        1.0  0.91491  0.07182  0.19845  1.0000
  N   N20       1.0  0.04797  0.88648  0.26185  1.0000
  C   C32       1.0  0.08139  0.90727  0.25230  1.0000
  H   H8        1.0  0.08356  0.92699  0.20096  1.0000
  C   C33       1.0  0.35916  0.54247  0.35001  1.0000
  C   C34       1.0  0.40530  0.61049  0.35647  1.0000
  N   N21       1.0  0.37973  0.60385  0.28823  1.0000
  C   C35       1.0  0.35570  0.57196  0.28335  1.0000
  C   C36       1.0  0.33470  0.56804  0.21136  1.0000
  N   N22       1.0  0.31612  0.56452  0.14782  1.0000
  C   C37       1.0  0.64040  0.45759  0.34978  1.0000
  C   C38       1.0  0.59435  0.38956  0.35699  1.0000
  N   N23       1.0  0.61976  0.39613  0.28843  1.0000
  C   C39       1.0  0.64368  0.42808  0.28313  1.0000
  C   C40       1.0  0.66468  0.43192  0.21111  1.0000
  N   N24       1.0  0.68326  0.43537  0.14754  1.0000
  C   C41       1.0  0.54404  0.64216  0.34821  1.0000
  C   C42       1.0  0.61230  0.59727  0.35491  1.0000
  N   N25       1.0  0.60435  0.62105  0.28403  1.0000
  C   C43       1.0  0.57230  0.64446  0.27879  1.0000
  C   C44       1.0  0.56707  0.66383  0.20479  1.0000
  N   N26       1.0  0.56238  0.68095  0.13946  1.0000
  C   C45       1.0  0.45563  0.35793  0.35034  1.0000
  C   C46       1.0  0.38748  0.40291  0.35661  1.0000
  N   N27       1.0  0.39513  0.37865  0.28640  1.0000
  C   C47       1.0  0.42715  0.35519  0.28147  1.0000
  C   C48       1.0  0.43210  0.33527  0.20811  1.0000
  N   N28       1.0  0.43654  0.31766  0.14337  1.0000
  C   C49       1.0  0.07687  0.37091  0.34423  1.0000
  C   C50       1.0  0.11645  0.38281  0.33939  1.0000
  C   C51       1.0  0.12784  0.42271  0.33342  1.0000
  C   C52       1.0  0.09788  0.45118  0.33388  1.0000
  C   C53       1.0  0.05786  0.44075  0.33761  1.0000
  C   C54       1.0  0.04807  0.40045  0.34156  1.0000
  H   H9        1.0  0.10530  0.48025  0.33467  1.0000
  H   H10       1.0  0.01932  0.39242  0.33864  1.0000
  H   H11       1.0  0.13763  0.36173  0.33998  1.0000
  C   C55       1.0  0.92259  0.62888  0.33810  1.0000
  C   C56       1.0  0.88308  0.61676  0.33402  1.0000
  C   C57       1.0  0.87192  0.57676  0.32891  1.0000
  C   C58       1.0  0.90209  0.54848  0.32823  1.0000
  C   C59       1.0  0.94209  0.55920  0.32799  1.0000
  C   C60       1.0  0.95152  0.59955  0.33374  1.0000
  H   H12       1.0  0.89489  0.51937  0.32798  1.0000
  H   H13       1.0  0.98019  0.60778  0.33512  1.0000
  H   H14       1.0  0.86180  0.63772  0.33552  1.0000
  C   C61       1.0  0.62745  0.07695  0.33631  1.0000
  C   C62       1.0  0.61611  0.11685  0.33501  1.0000
  C   C63       1.0  0.57645  0.12843  0.33444  1.0000
  C   C64       1.0  0.54766  0.09863  0.33916  1.0000
  C   C65       1.0  0.55766  0.05853  0.33710  1.0000
  C   C66       1.0  0.59752  0.04818  0.33345  1.0000
  H   H15       1.0  0.51883  0.10611  0.34288  1.0000
  H   H16       1.0  0.60472  0.01915  0.32998  1.0000
  H   H17       1.0  0.63733  0.13809  0.33448  1.0000
  C   C67       1.0  0.37117  0.92270  0.34257  1.0000
  C   C68       1.0  0.38278  0.88293  0.33687  1.0000
  C   C69       1.0  0.42238  0.87157  0.32933  1.0000
  C   C70       1.0  0.45092  0.90169  0.32861  1.0000
  C   C71       1.0  0.44066  0.94174  0.33195  1.0000
  C   C72       1.0  0.40082  0.95174  0.33916  1.0000
  H   H18       1.0  0.47985  0.89449  0.32830  1.0000
  H   H19       1.0  0.39338  0.98073  0.33812  1.0000
  H   H20       1.0  0.36171  0.86155  0.33824  1.0000
  C   C73       1.0  0.06669  0.13935  0.32807  1.0000
  C   C74       1.0  0.02734  0.12704  0.32525  1.0000
  C   C75       1.0  0.99619  0.15388  0.33133  1.0000
  C   C76       1.0  0.00521  0.19417  0.34041  1.0000
  C   C77       1.0  0.04445  0.20769  0.34139  1.0000
  C   C78       1.0  0.07488  0.17969  0.33725  1.0000
  H   H21       1.0  0.98285  0.21397  0.34127  1.0000
  H   H22       1.0  0.10342  0.18866  0.33915  1.0000
  H   H23       1.0  0.02125  0.09765  0.32017  1.0000
  C   C79       1.0  0.93172  0.86051  0.33957  1.0000
  C   C80       1.0  0.97085  0.87338  0.33690  1.0000
  C   C81       1.0  0.00210  0.84649  0.33742  1.0000
  C   C82       1.0  0.99346  0.80597  0.34112  1.0000
  C   C83       1.0  0.95435  0.79214  0.34119  1.0000
  C   C84       1.0  0.92372  0.81995  0.34095  1.0000
  H   H24       1.0  0.01596  0.78634  0.33910  1.0000
  H   H25       1.0  0.89526  0.81074  0.34310  1.0000
  H   H26       1.0  0.97665  0.90290  0.33511  1.0000
  C   C85       1.0  0.85911  0.06531  0.32549  1.0000
  C   C86       1.0  0.87039  0.02561  0.33035  1.0000
  C   C87       1.0  0.84260  0.99534  0.33955  1.0000
  C   C88       1.0  0.80266  0.00498  0.34335  1.0000
  C   C89       1.0  0.79010  0.04451  0.33742  1.0000
  C   C90       1.0  0.81897  0.07440  0.33026  1.0000
  H   H27       1.0  0.78259  0.98274  0.34806  1.0000
  H   H28       1.0  0.81083  0.10320  0.32761  1.0000
  H   H29       1.0  0.89946  0.01859  0.32852  1.0000
  C   C91       1.0  0.13979  0.93393  0.32723  1.0000
  C   C92       1.0  0.12877  0.97372  0.32609  1.0000
  C   C93       1.0  0.15639  0.00438  0.33248  1.0000
  C   C94       1.0  0.19619  0.99462  0.34155  1.0000
  C   C95       1.0  0.20859  0.95495  0.34187  1.0000
  C   C96       1.0  0.17978  0.92493  0.33635  1.0000
  H   H30       1.0  0.21640  0.01681  0.34338  1.0000
  H   H31       1.0  0.18790  0.89611  0.33759  1.0000
  H   H32       1.0  0.09972  0.98060  0.32172  1.0000
  C   C97       1.0  0.43470  0.63970  0.34843  1.0000
  C   C98       1.0  0.47425  0.62836  0.35003  1.0000
  C   C99       1.0  0.50494  0.65594  0.34270  1.0000
  C   C100      1.0  0.49536  0.69597  0.33337  1.0000
  C   C101      1.0  0.45594  0.70861  0.33353  1.0000
  C   C102      1.0  0.42593  0.67986  0.33909  1.0000
  H   H33       1.0  0.51748  0.71623  0.33113  1.0000
  H   H34       1.0  0.39728  0.68819  0.33798  1.0000
  H   H35       1.0  0.48089  0.59916  0.35513  1.0000
  C   C103      1.0  0.56494  0.36034  0.34954  1.0000
  C   C104      1.0  0.52540  0.37171  0.35115  1.0000
  C   C105      1.0  0.49469  0.34413  0.34469  1.0000
  C   C106      1.0  0.50422  0.30406  0.33612  1.0000
  C   C107      1.0  0.54363  0.29138  0.33623  1.0000
  C   C108      1.0  0.57366  0.32013  0.34090  1.0000
  H   H36       1.0  0.48207  0.28382  0.33478  1.0000
  H   H37       1.0  0.60232  0.31180  0.33970  1.0000
  H   H38       1.0  0.51880  0.40094  0.35572  1.0000
  C   C109      1.0  0.64082  0.56744  0.34734  1.0000
  C   C110      1.0  0.62852  0.52792  0.34929  1.0000
  C   C111      1.0  0.65518  0.49659  0.34331  1.0000
  C   C112      1.0  0.69530  0.50552  0.33451  1.0000
  C   C113      1.0  0.70893  0.54489  0.33409  1.0000
  C   C114      1.0  0.68107  0.57554  0.33871  1.0000
  H   H39       1.0  0.71490  0.48296  0.33351  1.0000
  H   H40       1.0  0.69009  0.60418  0.33733  1.0000
  H   H41       1.0  0.59925  0.52179  0.35398  1.0000
  C   C115      1.0  0.35891  0.43265  0.34846  1.0000
  C   C116      1.0  0.37111  0.47220  0.34995  1.0000
  C   C117      1.0  0.34438  0.50345  0.34379  1.0000
  C   C118      1.0  0.30427  0.49439  0.33522  1.0000
  C   C119      1.0  0.29075  0.45497  0.33515  1.0000
  C   C120      1.0  0.31870  0.42441  0.33997  1.0000
  H   H42       1.0  0.28461  0.51690  0.33406  1.0000
  H   H43       1.0  0.30976  0.39574  0.33893  1.0000
  H   H44       1.0  0.40037  0.47839  0.35450  1.0000
  N   N29       1.0  0.96696  0.49743  0.37763  1.0000
  C   C121      1.0  0.99303  0.46774  0.38391  1.0000
  H   H45       1.0  0.98704  0.44475  0.42562  1.0000
  N   N30       1.0  0.47244  0.99702  0.39869  1.0000
  C   C122      1.0  0.49985  0.02577  0.40481  1.0000
  H   H46       1.0  0.50007  0.04385  0.45941  1.0000
  C   C123      1.0  0.06687  0.33010  0.34738  1.0000
  C   C124      1.0  0.05288  0.24861  0.34320  1.0000
  N   N31       1.0  0.03093  0.27325  0.39390  1.0000
  C   C125      1.0  0.03637  0.31270  0.39863  1.0000
  C   C126      1.0  0.01424  0.33133  0.45493  1.0000
  N   N32       1.0  0.99465  0.34768  0.50479  1.0000
  C   C127      1.0  0.93238  0.66970  0.34252  1.0000
  C   C128      1.0  0.94623  0.75119  0.34046  1.0000
  N   N33       1.0  0.96816  0.72637  0.39067  1.0000
  C   C129      1.0  0.96284  0.68690  0.39427  1.0000
  C   C130      1.0  0.98486  0.66813  0.45055  1.0000
  N   N34       1.0  0.00438  0.65168  0.50038  1.0000
  C   C131      1.0  0.66803  0.06681  0.33870  1.0000
  C   C132      1.0  0.74936  0.05327  0.33754  1.0000
  N   N35       1.0  0.72420  0.03104  0.38679  1.0000
  C   C133      1.0  0.68492  0.03614  0.39004  1.0000
  C   C134      1.0  0.66603  0.01374  0.44578  1.0000
  N   N36       1.0  0.64950  0.99392  0.49521  1.0000
  C   C135      1.0  0.33052  0.93246  0.34691  1.0000
  C   C136      1.0  0.24924  0.94606  0.34421  1.0000
  N   N37       1.0  0.27421  0.96849  0.39351  1.0000
  C   C137      1.0  0.31349  0.96327  0.39760  1.0000
  C   C138      1.0  0.33231  0.98592  0.45290  1.0000
  N   N38       1.0  0.34877  0.00598  0.50194  1.0000
  N   N39       1.0  0.41108  0.80562  0.37739  1.0000
  C   C139      1.0  0.41667  0.76636  0.38178  1.0000
  H   H47       1.0  0.39950  0.75006  0.42367  1.0000
  N   N40       1.0  0.58869  0.19445  0.38068  1.0000
  C   C140      1.0  0.58328  0.23376  0.38406  1.0000
  H   H48       1.0  0.60098  0.25024  0.42439  1.0000
  N   N41       1.0  0.80655  0.58855  0.37766  1.0000
  C   C141      1.0  0.76736  0.58349  0.38210  1.0000
  H   H49       1.0  0.75148  0.60129  0.42313  1.0000
  N   N42       1.0  0.19343  0.41095  0.38043  1.0000
  C   C142      1.0  0.23261  0.41616  0.38410  1.0000
  H   H50       1.0  0.24867  0.39850  0.42507  1.0000
  C   C143      1.0  0.14261  0.04354  0.32645  1.0000
  C   C144      1.0  0.09653  0.11096  0.32058  1.0000
  N   N43       1.0  0.12042  0.10347  0.39135  1.0000
  C   C145      1.0  0.14437  0.07177  0.39625  1.0000
  C   C146      1.0  0.16373  0.06673  0.47024  1.0000
  N   N44       1.0  0.18086  0.06220  0.53551  1.0000
  C   C147      1.0  0.85611  0.95624  0.34373  1.0000
  C   C148      1.0  0.90167  0.88861  0.33969  1.0000
  N   N45       1.0  0.89158  0.90581  0.41844  1.0000
  C   C149      1.0  0.86867  0.93812  0.42421  1.0000
  C   C150      1.0  0.86275  0.95273  0.50355  1.0000
  N   N46       1.0  0.85758  0.96574  0.57347  1.0000
  C   C151      1.0  0.95729  0.13916  0.32484  1.0000
  C   C152      1.0  0.88855  0.09442  0.31696  1.0000
  N   N47       1.0  0.89521  0.12034  0.38467  1.0000
  C   C153      1.0  0.92746  0.14378  0.39003  1.0000
  C   C154      1.0  0.93123  0.16524  0.46152  1.0000
  N   N48       1.0  0.93464  0.18420  0.52464  1.0000
  C   C155      1.0  0.04090  0.86114  0.33031  1.0000
  C   C156      1.0  0.11017  0.90487  0.31973  1.0000
  N   N49       1.0  0.10341  0.87945  0.38838  1.0000
  C   C157      1.0  0.07091  0.85644  0.39500  1.0000
  C   C158      1.0  0.06713  0.83523  0.46687  1.0000
  N   N50       1.0  0.06370  0.81647  0.53029  1.0000
  N   N51       1.0  0.38461  0.54958  0.41813  1.0000
  C   C159      1.0  0.40659  0.58241  0.42576  1.0000
  H   H51       1.0  0.42620  0.58454  0.47715  1.0000
  N   N52       1.0  0.61505  0.45055  0.41814  1.0000
  C   C160      1.0  0.59311  0.41771  0.42613  1.0000
  H   H52       1.0  0.57360  0.41562  0.47771  1.0000
  N   N53       1.0  0.55225  0.61821  0.41856  1.0000
  C   C161      1.0  0.58529  0.59695  0.42625  1.0000
  H   H53       1.0  0.58823  0.57834  0.47947  1.0000
  N   N54       1.0  0.44763  0.38228  0.42008  1.0000
  C   C162      1.0  0.41464  0.40360  0.42761  1.0000
  H   H54       1.0  0.41185  0.42252  0.48031  1.0000
