data_image0
_chemical_formula_structural       C3NCH3C3NCH3C3NCH3C3NCH3C3NCH3C3NCH3CNHCNHCNHCNHCNHCNHCNHCNHCNHCNHCNHCNHC3NCH3C3NCH3C3NCH3C3NCH3C3NCH3C3NCH3CNHCNHCNHCNHCNHCNHCNHCNHCNHCNHCNHCNHC6H3C6H3C6H3C6H3C6H3C6H3C6H3C6H3C6H3C6H3C6H3C6H3C6H3C6H3C6H3C6H3C6H3C6H3C6H3C6H3C6H3C6H3C6H3C6H3CNHCNHCNHCNHCNHCNHC3NCH3C3NCH3C3NCH3C3NCH3C3NCH3C3NCH3C3NCH3C3NCH3C3NCH3C3NCH3C3NCH3C3NCH3CNHCNHCNHCNHCNHCNHC3NCH3C3NCH3C3NCH3C3NCH3C3NCH3C3NCH3C3NCH3C3NCH3C3NCH3C3NCH3C3NCH3C3NCH3
_chemical_formula_sum              "C324 N72 H216"
_cell_length_a       53.9804
_cell_length_b       53.9804
_cell_length_c       14.8416
_cell_angle_alpha    90
_cell_angle_beta     90
_cell_angle_gamma    120

_space_group_name_H-M_alt    "P 1"
_space_group_IT_number       1

loop_
  _space_group_symop_operation_xyz
  'x, y, z'

loop_
  _atom_site_type_symbol
  _atom_site_label
  _atom_site_symmetry_multiplicity
  _atom_site_fract_x
  _atom_site_fract_y
  _atom_site_fract_z
  _atom_site_occupancy
  C   C1        1.0  0.14661  0.44304  0.24318  1.0000
  C   C2        1.0  0.14484  0.45957  0.31514  1.0000
  C   C3        1.0  0.11779  0.39986  0.32484  1.0000
  N   N1        1.0  0.13356  0.41416  0.25186  1.0000
  C   C4        1.0  0.16284  0.45491  0.15856  1.0000
  H   H1        1.0  0.17122  0.47787  0.15208  1.0000
  H   H2        1.0  0.14887  0.44451  0.10103  1.0000
  H   H3        1.0  0.18072  0.45085  0.15587  1.0000
  C   C5        1.0  0.57032  0.70633  0.24295  1.0000
  C   C6        1.0  0.55381  0.68800  0.31487  1.0000
  C   C7        1.0  0.61352  0.72069  0.32452  1.0000
  N   N2        1.0  0.59920  0.72218  0.25159  1.0000
  C   C8        1.0  0.55844  0.71071  0.15839  1.0000
  H   H4        1.0  0.53548  0.69610  0.15192  1.0000
  H   H5        1.0  0.56883  0.70715  0.10082  1.0000
  H   H6        1.0  0.56247  0.73264  0.15577  1.0000
  C   C9        1.0  0.30682  0.86639  0.24344  1.0000
  C   C10       1.0  0.32525  0.86836  0.31526  1.0000
  C   C11       1.0  0.29260  0.89543  0.32454  1.0000
  N   N3        1.0  0.29098  0.87945  0.25196  1.0000
  C   C12       1.0  0.30230  0.84997  0.15913  1.0000
  H   H7        1.0  0.31692  0.84163  0.15258  1.0000
  H   H8        1.0  0.30574  0.86381  0.10134  1.0000
  H   H9        1.0  0.28038  0.83206  0.15700  1.0000
  C   C13       1.0  0.86909  0.56758  0.24331  1.0000
  C   C14       1.0  0.87099  0.55110  0.31518  1.0000
  C   C15       1.0  0.89810  0.61080  0.32460  1.0000
  N   N4        1.0  0.88217  0.59647  0.25191  1.0000
  C   C16       1.0  0.85269  0.55570  0.15895  1.0000
  H   H10       1.0  0.84432  0.53273  0.15245  1.0000
  H   H11       1.0  0.86657  0.56608  0.10121  1.0000
  H   H12       1.0  0.83481  0.55975  0.15672  1.0000
  C   C17       1.0  0.44574  0.30426  0.24340  1.0000
  C   C18       1.0  0.46221  0.32262  0.31532  1.0000
  C   C19       1.0  0.40251  0.29001  0.32470  1.0000
  N   N5        1.0  0.41685  0.28843  0.25198  1.0000
  C   C20       1.0  0.45763  0.29980  0.15895  1.0000
  H   H13       1.0  0.48059  0.31441  0.15245  1.0000
  H   H14       1.0  0.44723  0.30331  0.10128  1.0000
  H   H15       1.0  0.45359  0.27787  0.15657  1.0000
  C   C21       1.0  0.70897  0.14402  0.24320  1.0000
  C   C22       1.0  0.69062  0.14219  0.31510  1.0000
  C   C23       1.0  0.72332  0.11515  0.32466  1.0000
  N   N6        1.0  0.72482  0.13098  0.25180  1.0000
  C   C24       1.0  0.71338  0.16031  0.15867  1.0000
  H   H16       1.0  0.69877  0.16867  0.15219  1.0000
  H   H17       1.0  0.70983  0.14637  0.10107  1.0000
  H   H18       1.0  0.73530  0.17820  0.15614  1.0000
  C   C25       1.0  0.44610  0.12538  0.31360  1.0000
  N   N7        1.0  0.41708  0.11270  0.31228  1.0000
  H   H19       1.0  0.45606  0.12308  0.25834  1.0000
  C   C26       1.0  0.68994  0.56724  0.31321  1.0000
  N   N8        1.0  0.70622  0.59627  0.31201  1.0000
  H   H20       1.0  0.67757  0.55726  0.25813  1.0000
  C   C27       1.0  0.88790  0.32333  0.31326  1.0000
  N   N9        1.0  0.90066  0.30706  0.31198  1.0000
  H   H21       1.0  0.89026  0.33568  0.25813  1.0000
  C   C28       1.0  0.56993  0.88534  0.31371  1.0000
  N   N10       1.0  0.59895  0.89804  0.31240  1.0000
  H   H22       1.0  0.55996  0.88765  0.25846  1.0000
  C   C29       1.0  0.32609  0.44345  0.31327  1.0000
  N   N11       1.0  0.30982  0.41443  0.31205  1.0000
  H   H23       1.0  0.33847  0.45343  0.25821  1.0000
  C   C30       1.0  0.12810  0.68729  0.31369  1.0000
  N   N12       1.0  0.11537  0.70358  0.31239  1.0000
  H   H24       1.0  0.12578  0.67498  0.25850  1.0000
  C   C31       1.0  0.27872  0.52214  0.26402  1.0000
  N   N13       1.0  0.25347  0.52169  0.26241  1.0000
  H   H25       1.0  0.28349  0.51301  0.21143  1.0000
  C   C32       1.0  0.49138  0.75939  0.26414  1.0000
  N   N14       1.0  0.49180  0.73457  0.26252  1.0000
  H   H26       1.0  0.50059  0.77332  0.21166  1.0000
  C   C33       1.0  0.25425  0.73455  0.26438  1.0000
  N   N15       1.0  0.27906  0.75980  0.26292  1.0000
  H   H27       1.0  0.24037  0.72983  0.21176  1.0000
  C   C34       1.0  0.73713  0.48820  0.26392  1.0000
  N   N16       1.0  0.76237  0.48862  0.26239  1.0000
  H   H28       1.0  0.73230  0.49718  0.21104  1.0000
  C   C35       1.0  0.52483  0.25143  0.26415  1.0000
  N   N17       1.0  0.52444  0.27626  0.26251  1.0000
  H   H29       1.0  0.51574  0.23756  0.21145  1.0000
  C   C36       1.0  0.76196  0.27598  0.26427  1.0000
  N   N18       1.0  0.73715  0.25074  0.26282  1.0000
  H   H30       1.0  0.77590  0.28064  0.21185  1.0000
  C   C37       1.0  0.18326  0.60572  0.25615  1.0000
  C   C38       1.0  0.17414  0.61492  0.33284  1.0000
  C   C39       1.0  0.17364  0.56276  0.33227  1.0000
  N   N19       1.0  0.18317  0.58053  0.26006  1.0000
  C   C40       1.0  0.19412  0.62195  0.17102  1.0000
  H   H31       1.0  0.19172  0.64083  0.16835  1.0000
  H   H32       1.0  0.18231  0.60829  0.11429  1.0000
  H   H33       1.0  0.21675  0.62872  0.16316  1.0000
  C   C41       1.0  0.40764  0.58028  0.25605  1.0000
  C   C42       1.0  0.39844  0.56197  0.33273  1.0000
  C   C43       1.0  0.45062  0.61360  0.33222  1.0000
  N   N20       1.0  0.43284  0.60537  0.26003  1.0000
  C   C44       1.0  0.39141  0.57494  0.17095  1.0000
  H   H34       1.0  0.37253  0.55367  0.16824  1.0000
  H   H35       1.0  0.40507  0.57681  0.11419  1.0000
  H   H36       1.0  0.38465  0.59081  0.16316  1.0000
  C   C45       1.0  0.43319  0.83020  0.25589  1.0000
  C   C46       1.0  0.45149  0.83928  0.33259  1.0000
  C   C47       1.0  0.39984  0.83980  0.33206  1.0000
  N   N21       1.0  0.40809  0.83029  0.25980  1.0000
  C   C48       1.0  0.43859  0.81939  0.17070  1.0000
  H   H37       1.0  0.45986  0.82178  0.16808  1.0000
  H   H38       1.0  0.43676  0.83123  0.11403  1.0000
  H   H39       1.0  0.42272  0.79676  0.16269  1.0000
  C   C49       1.0  0.83278  0.40497  0.25588  1.0000
  C   C50       1.0  0.84186  0.39576  0.33261  1.0000
  C   C51       1.0  0.84240  0.44795  0.33201  1.0000
  N   N22       1.0  0.83287  0.43016  0.25983  1.0000
  C   C52       1.0  0.82192  0.38873  0.17075  1.0000
  H   H40       1.0  0.82431  0.36985  0.16810  1.0000
  H   H41       1.0  0.83374  0.40240  0.11402  1.0000
  H   H42       1.0  0.79929  0.38198  0.16286  1.0000
  C   C53       1.0  0.60836  0.43047  0.25567  1.0000
  C   C54       1.0  0.61756  0.44878  0.33236  1.0000
  C   C55       1.0  0.56541  0.39710  0.33182  1.0000
  N   N23       1.0  0.58318  0.40537  0.25960  1.0000
  C   C56       1.0  0.62460  0.43586  0.17055  1.0000
  H   H43       1.0  0.64347  0.45714  0.16792  1.0000
  H   H44       1.0  0.61093  0.43402  0.11382  1.0000
  H   H45       1.0  0.63136  0.42000  0.16263  1.0000
  C   C57       1.0  0.58292  0.18066  0.25625  1.0000
  C   C58       1.0  0.56459  0.17152  0.33290  1.0000
  C   C59       1.0  0.61623  0.17097  0.33232  1.0000
  N   N24       1.0  0.60801  0.18055  0.26018  1.0000
  C   C60       1.0  0.57757  0.19154  0.17112  1.0000
  H   H46       1.0  0.55629  0.18913  0.16839  1.0000
  H   H47       1.0  0.57945  0.17975  0.11437  1.0000
  H   H48       1.0  0.59343  0.21417  0.16331  1.0000
  C   C61       1.0  0.99256  0.29192  0.28269  1.0000
  N   N25       1.0  0.02154  0.30675  0.28195  1.0000
  H   H49       1.0  0.98214  0.29781  0.23758  1.0000
  C   C62       1.0  0.72142  0.70329  0.28263  1.0000
  N   N26       1.0  0.70657  0.71742  0.28197  1.0000
  H   H50       1.0  0.71549  0.68695  0.23762  1.0000
  C   C63       1.0  0.31015  0.02081  0.28285  1.0000
  N   N27       1.0  0.29601  0.99183  0.28209  1.0000
  H   H51       1.0  0.32651  0.03123  0.23788  1.0000
  C   C64       1.0  0.02347  0.71864  0.28276  1.0000
  N   N28       1.0  0.99449  0.70380  0.28205  1.0000
  H   H52       1.0  0.03389  0.71266  0.23792  1.0000
  C   C65       1.0  0.29461  0.30739  0.28283  1.0000
  N   N29       1.0  0.30945  0.29325  0.28212  1.0000
  H   H53       1.0  0.30050  0.32370  0.23773  1.0000
  C   C66       1.0  0.70596  0.98990  0.28271  1.0000
  N   N30       1.0  0.72009  0.01887  0.28197  1.0000
  H   H54       1.0  0.68963  0.97948  0.23766  1.0000
  C   C67       1.0  0.15711  0.32761  0.26927  1.0000
  N   N31       1.0  0.18245  0.32801  0.27427  1.0000
  H   H55       1.0  0.15195  0.33337  0.20960  1.0000
  C   C68       1.0  0.68636  0.83247  0.26924  1.0000
  N   N32       1.0  0.68596  0.85742  0.27418  1.0000
  H   H56       1.0  0.68109  0.82178  0.20916  1.0000
  C   C69       1.0  0.18084  0.85658  0.26906  1.0000
  N   N33       1.0  0.15589  0.83123  0.27399  1.0000
  H   H57       1.0  0.19150  0.86200  0.20893  1.0000
  C   C70       1.0  0.85905  0.68338  0.26924  1.0000
  N   N34       1.0  0.83369  0.68295  0.27426  1.0000
  H   H58       1.0  0.86429  0.67780  0.20939  1.0000
  C   C71       1.0  0.32981  0.17827  0.26908  1.0000
  N   N35       1.0  0.33019  0.15331  0.27395  1.0000
  H   H59       1.0  0.33516  0.18900  0.20906  1.0000
  C   C72       1.0  0.83495  0.15437  0.26905  1.0000
  N   N36       1.0  0.85990  0.17972  0.27405  1.0000
  H   H60       1.0  0.82408  0.14917  0.20928  1.0000
  C   C73       1.0  0.21628  0.52582  0.33407  1.0000
  C   C74       1.0  0.19440  0.49701  0.32885  1.0000
  C   C75       1.0  0.16524  0.48920  0.32553  1.0000
  C   C76       1.0  0.15803  0.51105  0.33128  1.0000
  C   C77       1.0  0.17973  0.54021  0.33665  1.0000
  C   C78       1.0  0.20878  0.54730  0.33854  1.0000
  H   H61       1.0  0.13702  0.50579  0.32712  1.0000
  H   H62       1.0  0.22470  0.56833  0.34040  1.0000
  H   H63       1.0  0.19989  0.48134  0.32639  1.0000
  C   C79       1.0  0.48755  0.69318  0.33396  1.0000
  C   C80       1.0  0.51636  0.70011  0.32872  1.0000
  C   C81       1.0  0.52418  0.67876  0.32537  1.0000
  C   C82       1.0  0.50233  0.64970  0.33129  1.0000
  C   C83       1.0  0.47318  0.64225  0.33661  1.0000
  C   C84       1.0  0.46608  0.66420  0.33850  1.0000
  H   H64       1.0  0.50758  0.63395  0.32693  1.0000
  H   H65       1.0  0.44505  0.65909  0.34037  1.0000
  H   H66       1.0  0.53203  0.72126  0.32623  1.0000
  C   C85       1.0  0.32028  0.79702  0.33453  1.0000
  C   C86       1.0  0.31327  0.81884  0.32938  1.0000
  C   C87       1.0  0.33457  0.84802  0.32563  1.0000
  C   C88       1.0  0.36365  0.85531  0.33127  1.0000
  C   C89       1.0  0.37118  0.83365  0.33650  1.0000
  C   C90       1.0  0.34928  0.80458  0.33869  1.0000
  H   H67       1.0  0.37937  0.87632  0.32673  1.0000
  H   H68       1.0  0.35444  0.78870  0.34054  1.0000
  H   H69       1.0  0.29210  0.81330  0.32711  1.0000
  C   C91       1.0  0.79963  0.48475  0.33439  1.0000
  C   C92       1.0  0.82146  0.51358  0.32925  1.0000
  C   C93       1.0  0.85064  0.52145  0.32563  1.0000
  C   C94       1.0  0.85792  0.49964  0.33123  1.0000
  C   C95       1.0  0.83625  0.47046  0.33644  1.0000
  C   C96       1.0  0.80719  0.46331  0.33851  1.0000
  H   H70       1.0  0.87893  0.50494  0.32683  1.0000
  H   H71       1.0  0.79130  0.44227  0.34036  1.0000
  H   H72       1.0  0.81592  0.52921  0.32691  1.0000
  C   C97       1.0  0.52852  0.31754  0.33427  1.0000
  C   C98       1.0  0.49970  0.31058  0.32922  1.0000
  C   C99       1.0  0.49186  0.33191  0.32564  1.0000
  C   C100      1.0  0.51370  0.36098  0.33122  1.0000
  C   C101      1.0  0.54287  0.36846  0.33643  1.0000
  C   C102      1.0  0.54999  0.34653  0.33839  1.0000
  H   H73       1.0  0.50842  0.37671  0.32685  1.0000
  H   H74       1.0  0.57102  0.35165  0.34015  1.0000
  H   H75       1.0  0.48405  0.28942  0.32693  1.0000
  C   C103      1.0  0.69581  0.21362  0.33426  1.0000
  C   C104      1.0  0.70274  0.19175  0.32904  1.0000
  C   C105      1.0  0.68139  0.16258  0.32557  1.0000
  C   C106      1.0  0.65233  0.15537  0.33126  1.0000
  C   C107      1.0  0.64487  0.17706  0.33670  1.0000
  C   C108      1.0  0.66683  0.20612  0.33865  1.0000
  H   H76       1.0  0.63658  0.13436  0.32703  1.0000
  H   H77       1.0  0.66171  0.22203  0.34061  1.0000
  H   H78       1.0  0.72390  0.19723  0.32664  1.0000
  C   C109      1.0  0.52833  0.21500  0.34907  1.0000
  C   C110      1.0  0.49968  0.19349  0.36213  1.0000
  C   C111      1.0  0.49178  0.16437  0.37026  1.0000
  C   C112      1.0  0.51330  0.15682  0.35978  1.0000
  C   C113      1.0  0.54224  0.17807  0.34422  1.0000
  C   C114      1.0  0.54947  0.20716  0.34128  1.0000
  H   H79       1.0  0.50784  0.13575  0.36317  1.0000
  H   H80       1.0  0.57031  0.22287  0.33149  1.0000
  H   H81       1.0  0.48428  0.19928  0.36642  1.0000
  C   C115      1.0  0.69729  0.48492  0.34892  1.0000
  C   C116      1.0  0.70447  0.51359  0.36188  1.0000
  C   C117      1.0  0.68328  0.52154  0.36995  1.0000
  C   C118      1.0  0.65421  0.50005  0.35939  1.0000
  C   C119      1.0  0.64647  0.47110  0.34392  1.0000
  C   C120      1.0  0.66829  0.46381  0.34104  1.0000
  H   H82       1.0  0.63862  0.50555  0.36264  1.0000
  H   H83       1.0  0.66314  0.44297  0.33129  1.0000
  H   H84       1.0  0.72568  0.52897  0.36615  1.0000
  C   C121      1.0  0.79835  0.31602  0.34897  1.0000
  C   C122      1.0  0.81986  0.30888  0.36209  1.0000
  C   C123      1.0  0.84899  0.33008  0.37014  1.0000
  C   C124      1.0  0.85654  0.35915  0.35961  1.0000
  C   C125      1.0  0.83531  0.36686  0.34404  1.0000
  C   C126      1.0  0.80622  0.34501  0.34111  1.0000
  H   H85       1.0  0.87762  0.37475  0.36293  1.0000
  H   H86       1.0  0.79051  0.35014  0.33122  1.0000
  H   H87       1.0  0.81406  0.28767  0.36641  1.0000
  C   C127      1.0  0.48768  0.79572  0.34895  1.0000
  C   C128      1.0  0.51633  0.81722  0.36217  1.0000
  C   C129      1.0  0.52426  0.84635  0.37031  1.0000
  C   C130      1.0  0.50276  0.85392  0.35976  1.0000
  C   C131      1.0  0.47382  0.83269  0.34410  1.0000
  C   C132      1.0  0.46656  0.80360  0.34106  1.0000
  H   H88       1.0  0.50823  0.87499  0.36313  1.0000
  H   H89       1.0  0.44573  0.78790  0.33108  1.0000
  H   H90       1.0  0.53173  0.81141  0.36650  1.0000
  C   C133      1.0  0.31869  0.52572  0.34893  1.0000
  C   C134      1.0  0.31155  0.49707  0.36192  1.0000
  C   C135      1.0  0.33275  0.48915  0.37010  1.0000
  C   C136      1.0  0.36182  0.51066  0.35963  1.0000
  C   C137      1.0  0.36954  0.53961  0.34414  1.0000
  C   C138      1.0  0.34769  0.54686  0.34120  1.0000
  H   H91       1.0  0.37743  0.50519  0.36292  1.0000
  H   H92       1.0  0.35282  0.56770  0.33137  1.0000
  H   H93       1.0  0.29035  0.48167  0.36613  1.0000
  C   C139      1.0  0.21776  0.69466  0.34926  1.0000
  C   C140      1.0  0.19628  0.70185  0.36227  1.0000
  C   C141      1.0  0.16714  0.68067  0.37035  1.0000
  C   C142      1.0  0.15955  0.65160  0.35979  1.0000
  C   C143      1.0  0.18075  0.64384  0.34427  1.0000
  C   C144      1.0  0.20986  0.66566  0.34139  1.0000
  H   H94       1.0  0.13846  0.63601  0.36308  1.0000
  H   H95       1.0  0.22554  0.66049  0.33160  1.0000
  H   H96       1.0  0.20212  0.72306  0.36658  1.0000
  C   C145      1.0  0.10781  0.37028  0.33340  1.0000
  C   C146      1.0  0.12746  0.36029  0.33612  1.0000
  C   C147      1.0  0.11834  0.33083  0.34447  1.0000
  C   C148      1.0  0.08843  0.31109  0.34858  1.0000
  C   C149      1.0  0.06804  0.32039  0.34223  1.0000
  C   C150      1.0  0.07833  0.35021  0.33643  1.0000
  H   H97       1.0  0.08148  0.28967  0.35250  1.0000
  H   H98       1.0  0.06413  0.35757  0.33313  1.0000
  H   H99       1.0  0.14895  0.37488  0.33375  1.0000
  C   C151      1.0  0.64310  0.74026  0.33312  1.0000
  C   C152      1.0  0.65313  0.76992  0.33589  1.0000
  C   C153      1.0  0.68260  0.79021  0.34441  1.0000
  C   C154      1.0  0.70230  0.78002  0.34855  1.0000
  C   C155      1.0  0.69297  0.75031  0.34215  1.0000
  C   C156      1.0  0.66314  0.73081  0.33623  1.0000
  H   H100      1.0  0.72373  0.79446  0.35270  1.0000
  H   H101      1.0  0.65575  0.70926  0.33290  1.0000
  H   H102      1.0  0.63857  0.77685  0.33343  1.0000
  C   C157      1.0  0.27305  0.90547  0.33299  1.0000
  C   C158      1.0  0.24338  0.88586  0.33570  1.0000
  C   C159      1.0  0.22311  0.89506  0.34420  1.0000
  C   C160      1.0  0.23333  0.92497  0.34841  1.0000
  C   C161      1.0  0.26304  0.94532  0.34208  1.0000
  C   C162      1.0  0.28251  0.93496  0.33619  1.0000
  H   H103      1.0  0.21890  0.93197  0.35256  1.0000
  H   H104      1.0  0.30408  0.94912  0.33294  1.0000
  H   H105      1.0  0.23644  0.86437  0.33325  1.0000
  C   C163      1.0  0.90814  0.64039  0.33313  1.0000
  C   C164      1.0  0.88853  0.65044  0.33590  1.0000
  C   C165      1.0  0.89771  0.67992  0.34428  1.0000
  C   C166      1.0  0.92762  0.69961  0.34839  1.0000
  C   C167      1.0  0.94798  0.69025  0.34206  1.0000
  C   C168      1.0  0.93763  0.66043  0.33621  1.0000
  H   H106      1.0  0.93462  0.72104  0.35246  1.0000
  H   H107      1.0  0.95179  0.65303  0.33294  1.0000
  H   H108      1.0  0.86703  0.63589  0.33350  1.0000
  C   C169      1.0  0.37293  0.27043  0.33322  1.0000
  C   C170      1.0  0.36290  0.24077  0.33591  1.0000
  C   C171      1.0  0.33344  0.22047  0.34438  1.0000
  C   C172      1.0  0.31372  0.23066  0.34860  1.0000
  C   C173      1.0  0.32306  0.26036  0.34232  1.0000
  C   C174      1.0  0.35288  0.27987  0.33646  1.0000
  H   H109      1.0  0.29230  0.21621  0.35270  1.0000
  H   H110      1.0  0.36026  0.30142  0.33320  1.0000
  H   H111      1.0  0.37747  0.23385  0.33338  1.0000
  C   C175      1.0  0.74291  0.10517  0.33319  1.0000
  C   C176      1.0  0.77256  0.12481  0.33592  1.0000
  C   C177      1.0  0.79288  0.11567  0.34430  1.0000
  C   C178      1.0  0.78270  0.08577  0.34852  1.0000
  C   C179      1.0  0.75300  0.06538  0.34214  1.0000
  C   C180      1.0  0.73349  0.07568  0.33633  1.0000
  H   H112      1.0  0.79716  0.07880  0.35241  1.0000
  H   H113      1.0  0.71193  0.06150  0.33303  1.0000
  H   H114      1.0  0.77946  0.14630  0.33343  1.0000
  C   C181      1.0  0.37255  0.10663  0.37116  1.0000
  C   C182      1.0  0.36233  0.12613  0.36947  1.0000
  C   C183      1.0  0.33295  0.11684  0.35820  1.0000
  C   C184      1.0  0.31343  0.08702  0.35079  1.0000
  C   C185      1.0  0.32282  0.06664  0.35477  1.0000
  C   C186      1.0  0.35265  0.07716  0.36336  1.0000
  H   H115      1.0  0.29217  0.08009  0.34137  1.0000
  H   H116      1.0  0.36009  0.06302  0.36649  1.0000
  H   H117      1.0  0.37674  0.14764  0.37360  1.0000
  C   C187      1.0  0.74472  0.64079  0.37094  1.0000
  C   C188      1.0  0.77444  0.65099  0.36930  1.0000
  C   C189      1.0  0.79454  0.68038  0.35815  1.0000
  C   C190      1.0  0.78426  0.69991  0.35082  1.0000
  C   C191      1.0  0.75450  0.69053  0.35469  1.0000
  C   C192      1.0  0.73516  0.66070  0.36315  1.0000
  H   H118      1.0  0.79860  0.72118  0.34156  1.0000
  H   H119      1.0  0.71359  0.65327  0.36617  1.0000
  H   H120      1.0  0.78154  0.63658  0.37343  1.0000
  C   C193      1.0  0.90676  0.26862  0.37098  1.0000
  C   C194      1.0  0.88724  0.23890  0.36927  1.0000
  C   C195      1.0  0.89652  0.21880  0.35814  1.0000
  C   C196      1.0  0.92634  0.22907  0.35085  1.0000
  C   C197      1.0  0.94673  0.25883  0.35477  1.0000
  C   C198      1.0  0.93624  0.27818  0.36326  1.0000
  H   H121      1.0  0.93326  0.21473  0.34153  1.0000
  H   H122      1.0  0.95038  0.29974  0.36631  1.0000
  H   H123      1.0  0.86574  0.23181  0.37334  1.0000
  C   C199      1.0  0.64349  0.90411  0.37124  1.0000
  C   C200      1.0  0.65369  0.88459  0.36960  1.0000
  C   C201      1.0  0.68307  0.89387  0.35837  1.0000
  C   C202      1.0  0.70260  0.92368  0.35078  1.0000
  C   C203      1.0  0.69324  0.94407  0.35473  1.0000
  C   C204      1.0  0.66340  0.93358  0.36335  1.0000
  H   H124      1.0  0.72386  0.93059  0.34141  1.0000
  H   H125      1.0  0.65598  0.94772  0.36640  1.0000
  H   H126      1.0  0.63928  0.86309  0.37386  1.0000
  C   C205      1.0  0.27132  0.36990  0.37097  1.0000
  C   C206      1.0  0.24160  0.35971  0.36919  1.0000
  C   C207      1.0  0.22150  0.33032  0.35810  1.0000
  C   C208      1.0  0.23176  0.31078  0.35093  1.0000
  C   C209      1.0  0.26152  0.32014  0.35488  1.0000
  C   C210      1.0  0.28087  0.34998  0.36331  1.0000
  H   H127      1.0  0.21742  0.28951  0.34168  1.0000
  H   H128      1.0  0.30244  0.35740  0.36639  1.0000
  H   H129      1.0  0.23452  0.37413  0.37328  1.0000
  C   C211      1.0  0.10930  0.74207  0.37115  1.0000
  C   C212      1.0  0.12879  0.77179  0.36945  1.0000
  C   C213      1.0  0.11948  0.79186  0.35818  1.0000
  C   C214      1.0  0.08966  0.78156  0.35071  1.0000
  C   C215      1.0  0.06930  0.75179  0.35475  1.0000
  C   C216      1.0  0.07982  0.73248  0.36338  1.0000
  H   H130      1.0  0.08272  0.79588  0.34133  1.0000
  H   H131      1.0  0.06570  0.71091  0.36644  1.0000
  H   H132      1.0  0.15030  0.77891  0.37365  1.0000
  C   C217      1.0  0.12771  0.44414  0.38964  1.0000
  N   N37       1.0  0.11509  0.41515  0.39294  1.0000
  H   H133      1.0  0.12654  0.45459  0.44548  1.0000
  C   C218      1.0  0.56925  0.68622  0.38921  1.0000
  N   N38       1.0  0.59824  0.70265  0.39253  1.0000
  H   H134      1.0  0.55882  0.67466  0.44515  1.0000
  C   C219      1.0  0.32716  0.88577  0.38918  1.0000
  N   N39       1.0  0.31079  0.89839  0.39232  1.0000
  H   H135      1.0  0.33894  0.88713  0.44483  1.0000
  C   C220      1.0  0.88837  0.56654  0.38922  1.0000
  N   N40       1.0  0.90096  0.59553  0.39246  1.0000
  H   H136      1.0  0.88958  0.55611  0.44505  1.0000
  C   C221      1.0  0.44676  0.32452  0.38940  1.0000
  N   N41       1.0  0.41777  0.30813  0.39259  1.0000
  H   H137      1.0  0.45720  0.33621  0.44513  1.0000
  C   C222      1.0  0.68891  0.12500  0.38946  1.0000
  N   N42       1.0  0.70528  0.11239  0.39270  1.0000
  H   H138      1.0  0.67725  0.12378  0.44528  1.0000
  C   C223      1.0  0.44617  0.14743  0.45505  1.0000
  C   C224      1.0  0.46217  0.14423  0.38419  1.0000
  C   C225      1.0  0.40226  0.11683  0.37891  1.0000
  N   N43       1.0  0.41720  0.13417  0.44848  1.0000
  C   C226      1.0  0.45867  0.16524  0.53656  1.0000
  H   H139      1.0  0.48168  0.17371  0.54191  1.0000
  H   H140      1.0  0.44873  0.15236  0.59651  1.0000
  H   H141      1.0  0.45462  0.18312  0.53561  1.0000
  C   C227      1.0  0.71199  0.56715  0.45453  1.0000
  C   C228      1.0  0.69280  0.55117  0.38360  1.0000
  C   C229      1.0  0.72521  0.61107  0.37858  1.0000
  N   N44       1.0  0.72767  0.59612  0.44802  1.0000
  C   C230      1.0  0.71733  0.55466  0.53602  1.0000
  H   H142      1.0  0.70279  0.53164  0.54141  1.0000
  H   H143      1.0  0.71440  0.56460  0.59599  1.0000
  H   H144      1.0  0.73926  0.55871  0.53500  1.0000
  C   C231      1.0  0.86596  0.30143  0.45491  1.0000
  C   C232      1.0  0.86912  0.32059  0.38400  1.0000
  C   C233      1.0  0.89657  0.28814  0.37867  1.0000
  N   N45       1.0  0.87924  0.28573  0.44828  1.0000
  C   C234      1.0  0.84817  0.29612  0.53645  1.0000
  H   H145      1.0  0.83967  0.31064  0.54180  1.0000
  H   H146      1.0  0.86106  0.29907  0.59637  1.0000
  H   H147      1.0  0.83030  0.27417  0.53554  1.0000
  C   C235      1.0  0.56987  0.86327  0.45513  1.0000
  C   C236      1.0  0.55388  0.86646  0.38426  1.0000
  C   C237      1.0  0.61378  0.89391  0.37902  1.0000
  N   N46       1.0  0.59884  0.87655  0.44855  1.0000
  C   C238      1.0  0.55737  0.84544  0.53659  1.0000
  H   H148      1.0  0.53435  0.83695  0.54193  1.0000
  H   H149      1.0  0.56730  0.85830  0.59658  1.0000
  H   H150      1.0  0.56144  0.82756  0.53560  1.0000
  C   C239      1.0  0.30407  0.44353  0.45467  1.0000
  C   C240      1.0  0.32325  0.45952  0.38373  1.0000
  C   C241      1.0  0.29084  0.39961  0.37863  1.0000
  N   N47       1.0  0.28839  0.41456  0.44811  1.0000
  C   C242      1.0  0.29872  0.45602  0.53614  1.0000
  H   H151      1.0  0.31325  0.47903  0.54155  1.0000
  H   H152      1.0  0.30164  0.44607  0.59612  1.0000
  H   H153      1.0  0.27678  0.45195  0.53509  1.0000
  C   C243      1.0  0.15024  0.70940  0.45500  1.0000
  C   C244      1.0  0.14705  0.69021  0.38412  1.0000
  C   C245      1.0  0.11952  0.72257  0.37892  1.0000
  N   N48       1.0  0.13693  0.72505  0.44839  1.0000
  C   C246      1.0  0.16810  0.71478  0.53642  1.0000
  H   H154      1.0  0.17661  0.70027  0.54182  1.0000
  H   H155      1.0  0.15526  0.71187  0.59643  1.0000
  H   H156      1.0  0.18596  0.73673  0.53530  1.0000
  C   C247      1.0  0.28721  0.54298  0.41318  1.0000
  C   C248      1.0  0.29645  0.53225  0.34094  1.0000
  C   C249      1.0  0.24489  0.53213  0.33133  1.0000
  N   N49       1.0  0.26165  0.54215  0.40574  1.0000
  C   C250      1.0  0.30199  0.55291  0.50090  1.0000
  H   H157      1.0  0.32206  0.55270  0.50394  1.0000
  H   H158      1.0  0.28812  0.53916  0.55463  1.0000
  H   H159      1.0  0.30669  0.57475  0.51328  1.0000
  C   C251      1.0  0.47025  0.74690  0.41287  1.0000
  C   C252      1.0  0.48115  0.76695  0.34089  1.0000
  C   C253      1.0  0.48125  0.71549  0.33125  1.0000
  N   N50       1.0  0.47110  0.72218  0.40545  1.0000
  C   C254      1.0  0.46021  0.75169  0.50049  1.0000
  H   H160      1.0  0.46045  0.77198  0.50358  1.0000
  H   H161      1.0  0.47389  0.75151  0.55438  1.0000
  H   H162      1.0  0.43835  0.73456  0.51257  1.0000
  C   C255      1.0  0.26645  0.72610  0.41384  1.0000
  C   C256      1.0  0.24655  0.71686  0.34143  1.0000
  C   C257      1.0  0.29802  0.76838  0.33200  1.0000
  N   N51       1.0  0.29120  0.75164  0.40648  1.0000
  C   C258      1.0  0.26151  0.71134  0.50163  1.0000
  H   H163      1.0  0.24122  0.69127  0.50455  1.0000
  H   H164      1.0  0.26158  0.72523  0.55522  1.0000
  H   H165      1.0  0.27863  0.70664  0.51432  1.0000
  C   C259      1.0  0.72882  0.46784  0.41377  1.0000
  C   C260      1.0  0.71951  0.47837  0.34114  1.0000
  C   C261      1.0  0.77100  0.47838  0.33170  1.0000
  N   N52       1.0  0.75435  0.46862  0.40642  1.0000
  C   C262      1.0  0.71414  0.45819  0.50175  1.0000
  H   H166      1.0  0.69406  0.45840  0.50464  1.0000
  H   H167      1.0  0.72807  0.47213  0.55507  1.0000
  H   H168      1.0  0.70947  0.43640  0.51487  1.0000
  C   C263      1.0  0.54561  0.26373  0.41344  1.0000
  C   C264      1.0  0.53485  0.24377  0.34118  1.0000
  C   C265      1.0  0.53485  0.29525  0.33151  1.0000
  N   N53       1.0  0.54480  0.28846  0.40600  1.0000
  C   C266      1.0  0.55543  0.25882  0.50128  1.0000
  H   H169      1.0  0.55517  0.23851  0.50433  1.0000
  H   H170      1.0  0.54164  0.25894  0.55486  1.0000
  H   H171      1.0  0.57727  0.27592  0.51386  1.0000
  C   C267      1.0  0.74958  0.28464  0.41317  1.0000
  C   C268      1.0  0.76958  0.29378  0.34104  1.0000
  C   C269      1.0  0.71810  0.24224  0.33164  1.0000
  N   N54       1.0  0.72484  0.25909  0.40584  1.0000
  C   C270      1.0  0.75441  0.29950  0.50073  1.0000
  H   H172      1.0  0.77471  0.31955  0.50372  1.0000
  H   H173      1.0  0.75423  0.28566  0.55467  1.0000
  H   H174      1.0  0.73729  0.30425  0.51281  1.0000
  C   C271      1.0  0.16393  0.59590  0.40700  1.0000
  N   N55       1.0  0.16453  0.57100  0.40560  1.0000
  H   H175      1.0  0.15827  0.60164  0.46573  1.0000
  C   C272      1.0  0.41749  0.57069  0.40682  1.0000
  N   N56       1.0  0.44237  0.59621  0.40547  1.0000
  H   H176      1.0  0.41170  0.55932  0.46561  1.0000
  C   C273      1.0  0.44267  0.84946  0.40684  1.0000
  N   N57       1.0  0.41716  0.84884  0.40545  1.0000
  H   H177      1.0  0.45405  0.85505  0.46561  1.0000
  C   C274      1.0  0.85210  0.41478  0.40677  1.0000
  N   N58       1.0  0.85149  0.43967  0.40533  1.0000
  H   H178      1.0  0.85775  0.40903  0.46550  1.0000
  C   C275      1.0  0.59852  0.43999  0.40651  1.0000
  N   N59       1.0  0.57366  0.41446  0.40513  1.0000
  H   H179      1.0  0.60431  0.45135  0.46535  1.0000
  C   C276      1.0  0.57334  0.16120  0.40696  1.0000
  N   N60       1.0  0.59884  0.16182  0.40556  1.0000
  H   H180      1.0  0.56191  0.15554  0.46565  1.0000
  C   C277      1.0  0.99437  0.26440  0.40713  1.0000
  C   C278      1.0  0.97719  0.27029  0.34746  1.0000
  C   C279      1.0  0.03779  0.30133  0.33961  1.0000
  N   N61       1.0  0.02359  0.28012  0.40098  1.0000
  C   C280      1.0  0.98339  0.24405  0.48347  1.0000
  H   H181      1.0  0.96032  0.23398  0.49224  1.0000
  H   H182      1.0  0.99339  0.25527  0.54593  1.0000
  H   H183      1.0  0.98876  0.22728  0.47280  1.0000
  C   C281      1.0  0.74891  0.73259  0.40717  1.0000
  C   C282      1.0  0.74305  0.70955  0.34740  1.0000
  C   C283      1.0  0.71201  0.73911  0.33963  1.0000
  N   N62       1.0  0.73321  0.74611  0.40100  1.0000
  C   C284      1.0  0.76929  0.74196  0.48345  1.0000
  H   H184      1.0  0.77935  0.72896  0.49221  1.0000
  H   H185      1.0  0.75809  0.74077  0.54594  1.0000
  H   H186      1.0  0.78605  0.76409  0.47271  1.0000
  C   C285      1.0  0.28066  0.01898  0.40683  1.0000
  C   C286      1.0  0.30384  0.03617  0.34751  1.0000
  C   C287      1.0  0.27428  0.97557  0.33959  1.0000
  N   N63       1.0  0.26717  0.98976  0.40069  1.0000
  C   C288      1.0  0.27120  0.02996  0.48296  1.0000
  H   H187      1.0  0.28422  0.05301  0.49190  1.0000
  H   H188      1.0  0.27228  0.01991  0.54548  1.0000
  H   H189      1.0  0.24911  0.02465  0.47188  1.0000
  C   C289      1.0  0.02165  0.74629  0.40683  1.0000
  C   C290      1.0  0.03882  0.74028  0.34748  1.0000
  C   C291      1.0  0.97823  0.70928  0.33951  1.0000
  N   N64       1.0  0.99243  0.73057  0.40064  1.0000
  C   C292      1.0  0.03262  0.76671  0.48297  1.0000
  H   H190      1.0  0.05567  0.77674  0.49193  1.0000
  H   H191      1.0  0.02256  0.75558  0.54548  1.0000
  H   H192      1.0  0.02732  0.78350  0.47190  1.0000
  C   C293      1.0  0.26710  0.27807  0.40733  1.0000
  C   C294      1.0  0.27297  0.30112  0.34759  1.0000
  C   C295      1.0  0.30403  0.27159  0.33984  1.0000
  N   N65       1.0  0.28281  0.26456  0.40118  1.0000
  C   C296      1.0  0.24671  0.26868  0.48355  1.0000
  H   H193      1.0  0.23663  0.28167  0.49229  1.0000
  H   H194      1.0  0.25789  0.26987  0.54608  1.0000
  H   H195      1.0  0.22995  0.24655  0.47278  1.0000
  C   C297      1.0  0.73535  0.99172  0.40696  1.0000
  C   C298      1.0  0.71225  0.97453  0.34738  1.0000
  C   C299      1.0  0.74179  0.03513  0.33959  1.0000
  N   N66       1.0  0.74885  0.02094  0.40084  1.0000
  C   C300      1.0  0.74474  0.98073  0.48324  1.0000
  H   H196      1.0  0.73175  0.95767  0.49203  1.0000
  H   H197      1.0  0.74356  0.99074  0.54572  1.0000
  H   H198      1.0  0.76687  0.98609  0.47246  1.0000
  C   C301      1.0  0.15060  0.31743  0.42809  1.0000
  C   C302      1.0  0.14000  0.32279  0.34690  1.0000
  C   C303      1.0  0.19210  0.32224  0.35154  1.0000
  N   N67       1.0  0.17621  0.31799  0.42712  1.0000
  C   C304      1.0  0.13718  0.31369  0.51774  1.0000
  H   H199      1.0  0.11699  0.31366  0.51523  1.0000
  H   H200      1.0  0.15170  0.33097  0.56227  1.0000
  H   H201      1.0  0.13299  0.29335  0.54657  1.0000
  C   C305      1.0  0.69538  0.83557  0.42866  1.0000
  C   C306      1.0  0.69069  0.81991  0.34709  1.0000
  C   C307      1.0  0.69115  0.87256  0.35180  1.0000
  N   N68       1.0  0.69481  0.86060  0.42766  1.0000
  C   C308      1.0  0.69849  0.82557  0.51856  1.0000
  H   H202      1.0  0.69864  0.80547  0.51602  1.0000
  H   H203      1.0  0.68083  0.82255  0.56177  1.0000
  H   H204      1.0  0.71857  0.84166  0.54894  1.0000
  C   C309      1.0  0.17776  0.86249  0.42849  1.0000
  C   C310      1.0  0.19341  0.87346  0.34690  1.0000
  C   C311      1.0  0.14076  0.82126  0.35163  1.0000
  N   N69       1.0  0.15274  0.83687  0.42749  1.0000
  C   C312      1.0  0.18779  0.87555  0.51842  1.0000
  H   H205      1.0  0.20788  0.89581  0.51590  1.0000
  H   H206      1.0  0.19083  0.86090  0.56148  1.0000
  H   H207      1.0  0.17171  0.87952  0.54897  1.0000
  C   C313      1.0  0.86533  0.69306  0.42828  1.0000
  C   C314      1.0  0.87612  0.68803  0.34689  1.0000
  C   C315      1.0  0.82394  0.68848  0.35172  1.0000
  N   N70       1.0  0.83972  0.69248  0.42739  1.0000
  C   C316      1.0  0.87863  0.69652  0.51801  1.0000
  H   H208      1.0  0.89886  0.69663  0.51543  1.0000
  H   H209      1.0  0.86408  0.67905  0.56196  1.0000
  H   H210      1.0  0.88271  0.71673  0.54759  1.0000
  C   C317      1.0  0.32046  0.17501  0.42837  1.0000
  C   C318      1.0  0.32538  0.19077  0.34690  1.0000
  C   C319      1.0  0.32486  0.13815  0.35155  1.0000
  N   N71       1.0  0.32104  0.14998  0.42740  1.0000
  C   C320      1.0  0.31722  0.18494  0.51824  1.0000
  H   H211      1.0  0.31712  0.20506  0.51575  1.0000
  H   H212      1.0  0.33479  0.18788  0.56174  1.0000
  H   H213      1.0  0.29708  0.16885  0.54828  1.0000
  C   C321      1.0  0.83848  0.14797  0.42805  1.0000
  C   C322      1.0  0.82258  0.13733  0.34674  1.0000
  C   C323      1.0  0.87521  0.18940  0.35147  1.0000
  N   N72       1.0  0.86352  0.17358  0.42713  1.0000
  C   C324      1.0  0.82871  0.13463  0.51776  1.0000
  H   H214      1.0  0.80855  0.11444  0.51525  1.0000
  H   H215      1.0  0.82590  0.14919  0.56197  1.0000
  H   H216      1.0  0.84483  0.13047  0.54700  1.0000
