data_image0
_chemical_formula_structural       C3OHC2HC2HC3H2C2NH2C2HC3OHC2HC2HC3H2C2NH2C2HC2OHOH4CHC3H2C2HC2NH2C2OHOH4CHC3H2C2HC2NH2C8OHC2H2C2H2C5HC5HNH2C4HNH2C8OHC2H2C2H2C5HC5HNH2C4HNH2C3OHC2OHC2H2C2H2C3H3C2H2C4HNH2C4HNH2C3OHC2OHC2H2C2H2C3H3C2H2C4HNH2C4HNH2C6O2H2C6O2H2C6O2H2C2H2C2H2C2H2C2H2C2H2C2H2C3H2C3H2C3H2C3H2C3H2C3H2C4HNH2C4HNH2C4HNH2C4HNH2C4HNH2C4HNH2C6O2H2C6O2H2C6O2H2C2H2C2H2C2H2C2H2C2H2C2H2C3H2C3H2C3H2C3H2C3H2C3H2C4HNH2C4HNH2C4HNH2C4HNH2C4HNH2C4HNH2
_chemical_formula_sum              "C288 O24 H192 N24"
_cell_length_a       46.5842
_cell_length_b       46.5843
_cell_length_c       14.8132
_cell_angle_alpha    90
_cell_angle_beta     90
_cell_angle_gamma    120

_space_group_name_H-M_alt    "P 1"
_space_group_IT_number       1

loop_
  _space_group_symop_operation_xyz
  'x, y, z'

loop_
  _atom_site_type_symbol
  _atom_site_label
  _atom_site_symmetry_multiplicity
  _atom_site_fract_x
  _atom_site_fract_y
  _atom_site_fract_z
  _atom_site_occupancy
  C   C1        1.0  0.02756  0.26541  0.31990  1.0000
  C   C2        1.0  0.04779  0.30116  0.31537  1.0000
  C   C3        1.0  0.08134  0.31853  0.34546  1.0000
  O   O1        1.0  0.03642  0.32113  0.28425  1.0000
  H   H1        1.0  0.03239  0.31658  0.21926  1.0000
  C   C4        1.0  0.11009  0.24044  0.28527  1.0000
  C   C5        1.0  0.14077  0.24109  0.28097  1.0000
  H   H2        1.0  0.09810  0.23839  0.22553  1.0000
  C   C6        1.0  0.14303  0.40568  0.28505  1.0000
  C   C7        1.0  0.11301  0.37499  0.28068  1.0000
  H   H3        1.0  0.10275  0.36621  0.21853  1.0000
  C   C8        1.0  0.09676  0.29980  0.36436  1.0000
  C   C9        1.0  0.08045  0.26523  0.35383  1.0000
  C   C10       1.0  0.04616  0.24880  0.33422  1.0000
  H   H4        1.0  0.12169  0.31205  0.37868  1.0000
  H   H5        1.0  0.03474  0.22383  0.34084  1.0000
  C   C11       1.0  0.11928  0.25572  0.44431  1.0000
  C   C12       1.0  0.09957  0.24935  0.36520  1.0000
  N   N1        1.0  0.11031  0.26309  0.52471  1.0000
  H   H6        1.0  0.12380  0.26738  0.57867  1.0000
  H   H7        1.0  0.08895  0.26176  0.53247  1.0000
  C   C13       1.0  0.10165  0.35351  0.35612  1.0000
  C   C14       1.0  0.11913  0.36583  0.43829  1.0000
  H   H8        1.0  0.11147  0.35061  0.49375  1.0000
  C   C15       1.0  0.02756  0.76541  0.31990  1.0000
  C   C16       1.0  0.04779  0.80116  0.31537  1.0000
  C   C17       1.0  0.08134  0.81853  0.34546  1.0000
  O   O2        1.0  0.03642  0.82112  0.28425  1.0000
  H   H9        1.0  0.03239  0.81658  0.21926  1.0000
  C   C18       1.0  0.11009  0.74045  0.28527  1.0000
  C   C19       1.0  0.14077  0.74109  0.28097  1.0000
  H   H10       1.0  0.09810  0.73839  0.22553  1.0000
  C   C20       1.0  0.14303  0.90568  0.28505  1.0000
  C   C21       1.0  0.11301  0.87499  0.28068  1.0000
  H   H11       1.0  0.10275  0.86620  0.21853  1.0000
  C   C22       1.0  0.09676  0.79980  0.36436  1.0000
  C   C23       1.0  0.08044  0.76523  0.35383  1.0000
  C   C24       1.0  0.04616  0.74880  0.33422  1.0000
  H   H12       1.0  0.12169  0.81205  0.37868  1.0000
  H   H13       1.0  0.03474  0.72383  0.34084  1.0000
  C   C25       1.0  0.11928  0.75572  0.44431  1.0000
  C   C26       1.0  0.09956  0.74935  0.36520  1.0000
  N   N2        1.0  0.11030  0.76309  0.52471  1.0000
  H   H14       1.0  0.12380  0.76738  0.57867  1.0000
  H   H15       1.0  0.08895  0.76176  0.53247  1.0000
  C   C27       1.0  0.10165  0.85350  0.35612  1.0000
  C   C28       1.0  0.11913  0.86583  0.43829  1.0000
  H   H16       1.0  0.11147  0.85061  0.49375  1.0000
  C   C29       1.0  0.21458  0.24974  0.31564  1.0000
  C   C30       1.0  0.19719  0.26586  0.34598  1.0000
  O   O3        1.0  0.19464  0.21844  0.28418  1.0000
  H   H17       1.0  0.19925  0.21904  0.21921  1.0000
  O   O4        1.0  0.22165  0.03331  0.28417  1.0000
  H   H18       1.0  0.22226  0.02932  0.21919  1.0000
  H   H19       1.0  0.14958  0.23964  0.21883  1.0000
  H   H20       1.0  0.15296  0.41769  0.22535  1.0000
  H   H21       1.0  0.22696  0.19851  0.34079  1.0000
  C   C31       1.0  0.21591  0.30000  0.36513  1.0000
  H   H22       1.0  0.20363  0.31265  0.37939  1.0000
  C   C32       1.0  0.21572  0.41905  0.36422  1.0000
  C   C33       1.0  0.19744  0.43534  0.35369  1.0000
  C   C34       1.0  0.21529  0.46963  0.33414  1.0000
  H   H23       1.0  0.20305  0.39412  0.37846  1.0000
  H   H24       1.0  0.20172  0.48104  0.34073  1.0000
  C   C35       1.0  0.16220  0.25118  0.35648  1.0000
  C   C36       1.0  0.14987  0.25632  0.43866  1.0000
  H   H25       1.0  0.16506  0.26385  0.49416  1.0000
  C   C37       1.0  0.14909  0.39643  0.44404  1.0000
  C   C38       1.0  0.16245  0.41619  0.36500  1.0000
  N   N3        1.0  0.16542  0.40539  0.52448  1.0000
  H   H26       1.0  0.15621  0.39187  0.57839  1.0000
  H   H27       1.0  0.18543  0.42676  0.53230  1.0000
  C   C39       1.0  0.21458  0.74974  0.31564  1.0000
  C   C40       1.0  0.19719  0.76586  0.34598  1.0000
  O   O5        1.0  0.19464  0.71844  0.28418  1.0000
  H   H28       1.0  0.19925  0.71904  0.21921  1.0000
  O   O6        1.0  0.22165  0.53331  0.28417  1.0000
  H   H29       1.0  0.22226  0.52932  0.21919  1.0000
  H   H30       1.0  0.14958  0.73963  0.21883  1.0000
  H   H31       1.0  0.15296  0.91769  0.22535  1.0000
  H   H32       1.0  0.22696  0.69852  0.34079  1.0000
  C   C41       1.0  0.21591  0.80000  0.36513  1.0000
  H   H33       1.0  0.20363  0.81265  0.37939  1.0000
  C   C42       1.0  0.21572  0.91905  0.36422  1.0000
  C   C43       1.0  0.19744  0.93534  0.35369  1.0000
  C   C44       1.0  0.21529  0.96963  0.33414  1.0000
  H   H34       1.0  0.20305  0.89412  0.37846  1.0000
  H   H35       1.0  0.20172  0.98104  0.34073  1.0000
  C   C45       1.0  0.16220  0.75118  0.35648  1.0000
  C   C46       1.0  0.14987  0.75632  0.43866  1.0000
  H   H36       1.0  0.16506  0.76385  0.49416  1.0000
  C   C47       1.0  0.14909  0.89643  0.44404  1.0000
  C   C48       1.0  0.16244  0.91619  0.36500  1.0000
  N   N4        1.0  0.16542  0.90539  0.52448  1.0000
  H   H37       1.0  0.15621  0.89187  0.57839  1.0000
  H   H38       1.0  0.18543  0.92676  0.53230  1.0000
  C   C49       1.0  0.26854  0.24730  0.32005  1.0000
  C   C50       1.0  0.25033  0.26527  0.32017  1.0000
  C   C51       1.0  0.26848  0.02444  0.32006  1.0000
  C   C52       1.0  0.26906  0.07816  0.34611  1.0000
  C   C53       1.0  0.25294  0.04466  0.31565  1.0000
  C   C54       1.0  0.25050  0.48826  0.31986  1.0000
  C   C55       1.0  0.26604  0.46804  0.31535  1.0000
  C   C56       1.0  0.24989  0.43451  0.34552  1.0000
  O   O7        1.0  0.29736  0.47942  0.28414  1.0000
  H   H39       1.0  0.29683  0.48344  0.21915  1.0000
  C   C57       1.0  0.27527  0.37273  0.28544  1.0000
  C   C58       1.0  0.27473  0.40281  0.28087  1.0000
  H   H40       1.0  0.27750  0.36278  0.22594  1.0000
  H   H41       1.0  0.27630  0.41307  0.21866  1.0000
  C   C59       1.0  0.24358  0.13981  0.28538  1.0000
  C   C60       1.0  0.24426  0.10980  0.28116  1.0000
  H   H42       1.0  0.24152  0.14974  0.22565  1.0000
  H   H43       1.0  0.24280  0.09952  0.21903  1.0000
  C   C61       1.0  0.25194  0.21208  0.33430  1.0000
  C   C62       1.0  0.26837  0.19424  0.35406  1.0000
  C   C63       1.0  0.30293  0.21252  0.36474  1.0000
  C   C64       1.0  0.25047  0.31830  0.35437  1.0000
  C   C65       1.0  0.26691  0.30047  0.33458  1.0000
  H   H44       1.0  0.29190  0.31407  0.34052  1.0000
  C   C66       1.0  0.30319  0.09356  0.36545  1.0000
  C   C67       1.0  0.26460  0.41423  0.35610  1.0000
  C   C68       1.0  0.25934  0.39676  0.43835  1.0000
  C   C69       1.0  0.25990  0.36675  0.44427  1.0000
  C   C70       1.0  0.26628  0.35330  0.36537  1.0000
  H   H45       1.0  0.25174  0.40442  0.49372  1.0000
  N   N5        1.0  0.25245  0.35046  0.52478  1.0000
  H   H46       1.0  0.24830  0.35980  0.57868  1.0000
  H   H47       1.0  0.25391  0.33052  0.53281  1.0000
  C   C71       1.0  0.25439  0.09847  0.35666  1.0000
  C   C72       1.0  0.25952  0.11597  0.43880  1.0000
  C   C73       1.0  0.25889  0.14593  0.44448  1.0000
  C   C74       1.0  0.25250  0.15923  0.36530  1.0000
  H   H48       1.0  0.26706  0.10831  0.49432  1.0000
  N   N6        1.0  0.26623  0.16228  0.52489  1.0000
  H   H49       1.0  0.27052  0.15307  0.57885  1.0000
  H   H50       1.0  0.26486  0.18228  0.53264  1.0000
  C   C75       1.0  0.26854  0.74730  0.32005  1.0000
  C   C76       1.0  0.25033  0.76527  0.32017  1.0000
  C   C77       1.0  0.26848  0.52444  0.32006  1.0000
  C   C78       1.0  0.26906  0.57816  0.34611  1.0000
  C   C79       1.0  0.25294  0.54466  0.31565  1.0000
  C   C80       1.0  0.25050  0.98826  0.31986  1.0000
  C   C81       1.0  0.26604  0.96804  0.31535  1.0000
  C   C82       1.0  0.24989  0.93451  0.34552  1.0000
  O   O8        1.0  0.29736  0.97942  0.28414  1.0000
  H   H51       1.0  0.29683  0.98344  0.21915  1.0000
  C   C83       1.0  0.27527  0.87273  0.28544  1.0000
  C   C84       1.0  0.27473  0.90281  0.28087  1.0000
  H   H52       1.0  0.27750  0.86278  0.22594  1.0000
  H   H53       1.0  0.27630  0.91307  0.21866  1.0000
  C   C85       1.0  0.24358  0.63981  0.28538  1.0000
  C   C86       1.0  0.24426  0.60980  0.28116  1.0000
  H   H54       1.0  0.24152  0.64974  0.22565  1.0000
  H   H55       1.0  0.24279  0.59952  0.21903  1.0000
  C   C87       1.0  0.25194  0.71208  0.33430  1.0000
  C   C88       1.0  0.26837  0.69424  0.35406  1.0000
  C   C89       1.0  0.30293  0.71251  0.36474  1.0000
  C   C90       1.0  0.25047  0.81830  0.35437  1.0000
  C   C91       1.0  0.26691  0.80047  0.33458  1.0000
  H   H56       1.0  0.29190  0.81407  0.34052  1.0000
  C   C92       1.0  0.30319  0.59356  0.36545  1.0000
  C   C93       1.0  0.26459  0.91423  0.35610  1.0000
  C   C94       1.0  0.25934  0.89676  0.43835  1.0000
  C   C95       1.0  0.25990  0.86675  0.44427  1.0000
  C   C96       1.0  0.26628  0.85330  0.36537  1.0000
  H   H57       1.0  0.25173  0.90441  0.49372  1.0000
  N   N7        1.0  0.25245  0.85046  0.52478  1.0000
  H   H58       1.0  0.24830  0.85980  0.57868  1.0000
  H   H59       1.0  0.25391  0.83052  0.53281  1.0000
  C   C97       1.0  0.25439  0.59847  0.35666  1.0000
  C   C98       1.0  0.25952  0.61597  0.43880  1.0000
  C   C99       1.0  0.25888  0.64593  0.44448  1.0000
  C   C100      1.0  0.25250  0.65923  0.36530  1.0000
  H   H60       1.0  0.26705  0.60831  0.49432  1.0000
  N   N8        1.0  0.26623  0.66227  0.52489  1.0000
  H   H61       1.0  0.27052  0.65307  0.57885  1.0000
  H   H62       1.0  0.26486  0.68228  0.53264  1.0000
  C   C101      1.0  0.49138  0.24721  0.32015  1.0000
  C   C102      1.0  0.43769  0.19407  0.34660  1.0000
  C   C103      1.0  0.47115  0.21145  0.31584  1.0000
  O   O9        1.0  0.48249  0.19151  0.28422  1.0000
  H   H63       1.0  0.48647  0.19613  0.21925  1.0000
  C   C104      1.0  0.32167  0.24667  0.34580  1.0000
  C   C105      1.0  0.30430  0.26282  0.31558  1.0000
  O   O10       1.0  0.32425  0.29414  0.28432  1.0000
  H   H64       1.0  0.31968  0.29359  0.21933  1.0000
  C   C106      1.0  0.40894  0.27231  0.28588  1.0000
  C   C107      1.0  0.37829  0.27170  0.28142  1.0000
  H   H65       1.0  0.42115  0.27462  0.22639  1.0000
  H   H66       1.0  0.36962  0.27336  0.21925  1.0000
  C   C108      1.0  0.37608  0.10691  0.28593  1.0000
  C   C109      1.0  0.40616  0.13754  0.28172  1.0000
  H   H67       1.0  0.36621  0.09476  0.22635  1.0000
  H   H68       1.0  0.41652  0.14627  0.21964  1.0000
  C   C110      1.0  0.47275  0.26378  0.33453  1.0000
  C   C111      1.0  0.43852  0.24736  0.35490  1.0000
  C   C112      1.0  0.42230  0.21281  0.36590  1.0000
  H   H69       1.0  0.48411  0.28878  0.34027  1.0000
  H   H70       1.0  0.39737  0.20053  0.38014  1.0000
  H   H71       1.0  0.31518  0.19983  0.37895  1.0000
  C   C113      1.0  0.30368  0.04306  0.33451  1.0000
  C   C114      1.0  0.32149  0.07730  0.35464  1.0000
  H   H72       1.0  0.31729  0.03168  0.34047  1.0000
  H   H73       1.0  0.31584  0.11849  0.37967  1.0000
  C   C115      1.0  0.35665  0.26137  0.35653  1.0000
  C   C116      1.0  0.36888  0.25605  0.43869  1.0000
  C   C117      1.0  0.39947  0.25667  0.44462  1.0000
  C   C118      1.0  0.41928  0.26314  0.36561  1.0000
  H   H74       1.0  0.35360  0.24838  0.49403  1.0000
  N   N9        1.0  0.40832  0.24923  0.52512  1.0000
  H   H75       1.0  0.39482  0.24504  0.57901  1.0000
  H   H76       1.0  0.42977  0.25078  0.53318  1.0000
  C   C119      1.0  0.41736  0.15907  0.35703  1.0000
  C   C120      1.0  0.39981  0.14679  0.43915  1.0000
  C   C121      1.0  0.36979  0.11622  0.44475  1.0000
  C   C122      1.0  0.35651  0.09650  0.36555  1.0000
  H   H77       1.0  0.40738  0.16201  0.49460  1.0000
  N   N10       1.0  0.35342  0.10730  0.52513  1.0000
  H   H78       1.0  0.36269  0.12073  0.57914  1.0000
  H   H79       1.0  0.33349  0.08586  0.53297  1.0000
  C   C123      1.0  0.49137  0.74720  0.32015  1.0000
  C   C124      1.0  0.43769  0.69407  0.34660  1.0000
  C   C125      1.0  0.47115  0.71145  0.31584  1.0000
  O   O11       1.0  0.48249  0.69151  0.28422  1.0000
  H   H80       1.0  0.48647  0.69613  0.21925  1.0000
  C   C126      1.0  0.32167  0.74667  0.34580  1.0000
  C   C127      1.0  0.30430  0.76282  0.31558  1.0000
  O   O12       1.0  0.32425  0.79414  0.28432  1.0000
  H   H81       1.0  0.31968  0.79359  0.21933  1.0000
  C   C128      1.0  0.40894  0.77231  0.28588  1.0000
  C   C129      1.0  0.37829  0.77170  0.28142  1.0000
  H   H82       1.0  0.42115  0.77462  0.22639  1.0000
  H   H83       1.0  0.36962  0.77336  0.21925  1.0000
  C   C130      1.0  0.37608  0.60691  0.28593  1.0000
  C   C131      1.0  0.40616  0.63754  0.28172  1.0000
  H   H84       1.0  0.36621  0.59476  0.22635  1.0000
  H   H85       1.0  0.41652  0.64628  0.21964  1.0000
  C   C132      1.0  0.47275  0.76378  0.33453  1.0000
  C   C133      1.0  0.43852  0.74736  0.35490  1.0000
  C   C134      1.0  0.42230  0.71281  0.36590  1.0000
  H   H86       1.0  0.48411  0.78878  0.34027  1.0000
  H   H87       1.0  0.39737  0.70052  0.38014  1.0000
  H   H88       1.0  0.31518  0.69983  0.37895  1.0000
  C   C135      1.0  0.30368  0.54306  0.33451  1.0000
  C   C136      1.0  0.32149  0.57730  0.35464  1.0000
  H   H89       1.0  0.31729  0.53168  0.34047  1.0000
  H   H90       1.0  0.31584  0.61849  0.37967  1.0000
  C   C137      1.0  0.35665  0.76137  0.35653  1.0000
  C   C138      1.0  0.36888  0.75605  0.43869  1.0000
  C   C139      1.0  0.39947  0.75667  0.44462  1.0000
  C   C140      1.0  0.41928  0.76314  0.36561  1.0000
  H   H91       1.0  0.35360  0.74838  0.49403  1.0000
  N   N11       1.0  0.40832  0.74923  0.52512  1.0000
  H   H92       1.0  0.39482  0.74504  0.57901  1.0000
  H   H93       1.0  0.42977  0.75078  0.53318  1.0000
  C   C141      1.0  0.41736  0.65907  0.35703  1.0000
  C   C142      1.0  0.39980  0.64679  0.43915  1.0000
  C   C143      1.0  0.36980  0.61622  0.44475  1.0000
  C   C144      1.0  0.35651  0.59649  0.36555  1.0000
  H   H94       1.0  0.40738  0.66201  0.49460  1.0000
  N   N12       1.0  0.35342  0.60730  0.52513  1.0000
  H   H95       1.0  0.36269  0.62073  0.57914  1.0000
  H   H96       1.0  0.33349  0.58586  0.53297  1.0000
  C   C145      1.0  0.99138  0.24721  0.32015  1.0000
  C   C146      1.0  0.93769  0.19407  0.34660  1.0000
  C   C147      1.0  0.97115  0.21145  0.31584  1.0000
  C   C148      1.0  0.52756  0.26541  0.31990  1.0000
  C   C149      1.0  0.54780  0.30116  0.31537  1.0000
  C   C150      1.0  0.58134  0.31853  0.34546  1.0000
  O   O13       1.0  0.98249  0.19151  0.28422  1.0000
  O   O14       1.0  0.53643  0.32113  0.28425  1.0000
  H   H97       1.0  0.98647  0.19613  0.21925  1.0000
  H   H98       1.0  0.53239  0.31658  0.21926  1.0000
  C   C151      1.0  0.76854  0.24730  0.32005  1.0000
  C   C152      1.0  0.82167  0.24667  0.34580  1.0000
  C   C153      1.0  0.80430  0.26282  0.31558  1.0000
  C   C154      1.0  0.75033  0.26527  0.32017  1.0000
  C   C155      1.0  0.71458  0.24974  0.31564  1.0000
  C   C156      1.0  0.69719  0.26586  0.34598  1.0000
  O   O15       1.0  0.82425  0.29414  0.28432  1.0000
  O   O16       1.0  0.69464  0.21844  0.28418  1.0000
  H   H99       1.0  0.81968  0.29359  0.21933  1.0000
  H   H100      1.0  0.69925  0.21904  0.21921  1.0000
  C   C157      1.0  0.76847  0.02444  0.32006  1.0000
  C   C158      1.0  0.76906  0.07816  0.34611  1.0000
  C   C159      1.0  0.75294  0.04466  0.31565  1.0000
  C   C160      1.0  0.75050  0.48826  0.31986  1.0000
  C   C161      1.0  0.76604  0.46804  0.31535  1.0000
  C   C162      1.0  0.74989  0.43451  0.34552  1.0000
  O   O17       1.0  0.72165  0.03331  0.28417  1.0000
  O   O18       1.0  0.79736  0.47942  0.28414  1.0000
  H   H101      1.0  0.72226  0.02932  0.21919  1.0000
  H   H102      1.0  0.79683  0.48344  0.21915  1.0000
  C   C163      1.0  0.61009  0.24044  0.28527  1.0000
  C   C164      1.0  0.64077  0.24109  0.28097  1.0000
  H   H103      1.0  0.59810  0.23839  0.22553  1.0000
  H   H104      1.0  0.64958  0.23964  0.21883  1.0000
  C   C165      1.0  0.77527  0.37273  0.28544  1.0000
  C   C166      1.0  0.77474  0.40281  0.28087  1.0000
  H   H105      1.0  0.77750  0.36278  0.22594  1.0000
  H   H106      1.0  0.77629  0.41307  0.21866  1.0000
  C   C167      1.0  0.64303  0.40568  0.28505  1.0000
  C   C168      1.0  0.61301  0.37499  0.28068  1.0000
  H   H107      1.0  0.65296  0.41769  0.22535  1.0000
  H   H108      1.0  0.60275  0.36621  0.21853  1.0000
  C   C169      1.0  0.90894  0.27231  0.28588  1.0000
  C   C170      1.0  0.87829  0.27170  0.28142  1.0000
  H   H109      1.0  0.92115  0.27462  0.22639  1.0000
  H   H110      1.0  0.86962  0.27336  0.21925  1.0000
  C   C171      1.0  0.74358  0.13981  0.28538  1.0000
  C   C172      1.0  0.74426  0.10980  0.28116  1.0000
  H   H111      1.0  0.74152  0.14974  0.22565  1.0000
  H   H112      1.0  0.74280  0.09952  0.21903  1.0000
  C   C173      1.0  0.87608  0.10691  0.28593  1.0000
  C   C174      1.0  0.90616  0.13754  0.28172  1.0000
  H   H113      1.0  0.86621  0.09476  0.22635  1.0000
  H   H114      1.0  0.91652  0.14627  0.21964  1.0000
  C   C175      1.0  0.97275  0.26378  0.33453  1.0000
  C   C176      1.0  0.93852  0.24736  0.35490  1.0000
  C   C177      1.0  0.92230  0.21281  0.36590  1.0000
  H   H115      1.0  0.98411  0.28878  0.34027  1.0000
  H   H116      1.0  0.89737  0.20053  0.38014  1.0000
  C   C178      1.0  0.59676  0.29980  0.36436  1.0000
  C   C179      1.0  0.58045  0.26523  0.35383  1.0000
  C   C180      1.0  0.54616  0.24880  0.33422  1.0000
  H   H117      1.0  0.62169  0.31205  0.37868  1.0000
  H   H118      1.0  0.53474  0.22383  0.34084  1.0000
  C   C181      1.0  0.75194  0.21208  0.33430  1.0000
  C   C182      1.0  0.76837  0.19424  0.35406  1.0000
  C   C183      1.0  0.80293  0.21252  0.36474  1.0000
  H   H119      1.0  0.72696  0.19851  0.34079  1.0000
  H   H120      1.0  0.81518  0.19983  0.37895  1.0000
  C   C184      1.0  0.71591  0.30000  0.36513  1.0000
  C   C185      1.0  0.75047  0.31830  0.35437  1.0000
  C   C186      1.0  0.76691  0.30047  0.33458  1.0000
  H   H121      1.0  0.70363  0.31265  0.37939  1.0000
  H   H122      1.0  0.79190  0.31407  0.34052  1.0000
  C   C187      1.0  0.80368  0.04306  0.33451  1.0000
  C   C188      1.0  0.82149  0.07730  0.35464  1.0000
  C   C189      1.0  0.80319  0.09356  0.36545  1.0000
  H   H123      1.0  0.81729  0.03168  0.34047  1.0000
  H   H124      1.0  0.81584  0.11849  0.37967  1.0000
  C   C190      1.0  0.71572  0.41905  0.36422  1.0000
  C   C191      1.0  0.69744  0.43534  0.35369  1.0000
  C   C192      1.0  0.71529  0.46963  0.33414  1.0000
  H   H125      1.0  0.70305  0.39412  0.37846  1.0000
  H   H126      1.0  0.70172  0.48104  0.34073  1.0000
  C   C193      1.0  0.66221  0.25118  0.35648  1.0000
  C   C194      1.0  0.64987  0.25632  0.43866  1.0000
  C   C195      1.0  0.61928  0.25572  0.44431  1.0000
  C   C196      1.0  0.59957  0.24935  0.36520  1.0000
  H   H127      1.0  0.66506  0.26385  0.49416  1.0000
  N   N13       1.0  0.61031  0.26309  0.52471  1.0000
  H   H128      1.0  0.62380  0.26738  0.57867  1.0000
  H   H129      1.0  0.58895  0.26176  0.53247  1.0000
  C   C197      1.0  0.76460  0.41423  0.35610  1.0000
  C   C198      1.0  0.75934  0.39676  0.43835  1.0000
  C   C199      1.0  0.75990  0.36675  0.44427  1.0000
  C   C200      1.0  0.76628  0.35330  0.36537  1.0000
  H   H130      1.0  0.75174  0.40442  0.49372  1.0000
  N   N14       1.0  0.75245  0.35046  0.52478  1.0000
  H   H131      1.0  0.74830  0.35980  0.57868  1.0000
  H   H132      1.0  0.75391  0.33052  0.53281  1.0000
  C   C201      1.0  0.60165  0.35351  0.35612  1.0000
  C   C202      1.0  0.61913  0.36583  0.43829  1.0000
  C   C203      1.0  0.64909  0.39643  0.44404  1.0000
  C   C204      1.0  0.66245  0.41619  0.36500  1.0000
  H   H133      1.0  0.61147  0.35061  0.49375  1.0000
  N   N15       1.0  0.66542  0.40539  0.52448  1.0000
  H   H134      1.0  0.65622  0.39187  0.57839  1.0000
  H   H135      1.0  0.68543  0.42676  0.53230  1.0000
  C   C205      1.0  0.85665  0.26137  0.35653  1.0000
  C   C206      1.0  0.86888  0.25605  0.43869  1.0000
  C   C207      1.0  0.89947  0.25667  0.44462  1.0000
  C   C208      1.0  0.91928  0.26314  0.36561  1.0000
  H   H136      1.0  0.85360  0.24838  0.49403  1.0000
  N   N16       1.0  0.90833  0.24923  0.52512  1.0000
  H   H137      1.0  0.89482  0.24504  0.57901  1.0000
  H   H138      1.0  0.92977  0.25078  0.53318  1.0000
  C   C209      1.0  0.75439  0.09847  0.35666  1.0000
  C   C210      1.0  0.75952  0.11597  0.43880  1.0000
  C   C211      1.0  0.75889  0.14593  0.44448  1.0000
  C   C212      1.0  0.75250  0.15923  0.36530  1.0000
  H   H139      1.0  0.76706  0.10831  0.49432  1.0000
  N   N17       1.0  0.76623  0.16228  0.52489  1.0000
  H   H140      1.0  0.77052  0.15307  0.57885  1.0000
  H   H141      1.0  0.76486  0.18228  0.53264  1.0000
  C   C213      1.0  0.91736  0.15907  0.35703  1.0000
  C   C214      1.0  0.89981  0.14679  0.43915  1.0000
  C   C215      1.0  0.86980  0.11622  0.44475  1.0000
  C   C216      1.0  0.85651  0.09650  0.36555  1.0000
  H   H142      1.0  0.90738  0.16201  0.49460  1.0000
  N   N18       1.0  0.85342  0.10730  0.52513  1.0000
  H   H143      1.0  0.86269  0.12073  0.57914  1.0000
  H   H144      1.0  0.83349  0.08586  0.53297  1.0000
  C   C217      1.0  0.99137  0.74720  0.32015  1.0000
  C   C218      1.0  0.93769  0.69407  0.34660  1.0000
  C   C219      1.0  0.97115  0.71145  0.31584  1.0000
  C   C220      1.0  0.52756  0.76541  0.31990  1.0000
  C   C221      1.0  0.54780  0.80116  0.31537  1.0000
  C   C222      1.0  0.58134  0.81853  0.34546  1.0000
  O   O19       1.0  0.98249  0.69151  0.28422  1.0000
  O   O20       1.0  0.53642  0.82112  0.28425  1.0000
  H   H145      1.0  0.98647  0.69613  0.21925  1.0000
  H   H146      1.0  0.53239  0.81658  0.21926  1.0000
  C   C223      1.0  0.76854  0.74730  0.32005  1.0000
  C   C224      1.0  0.82167  0.74667  0.34580  1.0000
  C   C225      1.0  0.80430  0.76282  0.31558  1.0000
  C   C226      1.0  0.75033  0.76527  0.32017  1.0000
  C   C227      1.0  0.71458  0.74974  0.31564  1.0000
  C   C228      1.0  0.69719  0.76586  0.34598  1.0000
  O   O21       1.0  0.82425  0.79414  0.28432  1.0000
  O   O22       1.0  0.69464  0.71844  0.28418  1.0000
  H   H147      1.0  0.81968  0.79359  0.21933  1.0000
  H   H148      1.0  0.69925  0.71904  0.21921  1.0000
  C   C229      1.0  0.76848  0.52444  0.32006  1.0000
  C   C230      1.0  0.76906  0.57816  0.34611  1.0000
  C   C231      1.0  0.75294  0.54466  0.31565  1.0000
  C   C232      1.0  0.75050  0.98826  0.31986  1.0000
  C   C233      1.0  0.76604  0.96804  0.31535  1.0000
  C   C234      1.0  0.74989  0.93451  0.34552  1.0000
  O   O23       1.0  0.72165  0.53331  0.28417  1.0000
  O   O24       1.0  0.79736  0.97942  0.28414  1.0000
  H   H149      1.0  0.72225  0.52932  0.21919  1.0000
  H   H150      1.0  0.79683  0.98344  0.21915  1.0000
  C   C235      1.0  0.61009  0.74045  0.28527  1.0000
  C   C236      1.0  0.64077  0.74109  0.28097  1.0000
  H   H151      1.0  0.59810  0.73839  0.22553  1.0000
  H   H152      1.0  0.64958  0.73963  0.21883  1.0000
  C   C237      1.0  0.77527  0.87273  0.28544  1.0000
  C   C238      1.0  0.77473  0.90281  0.28087  1.0000
  H   H153      1.0  0.77750  0.86278  0.22594  1.0000
  H   H154      1.0  0.77630  0.91307  0.21866  1.0000
  C   C239      1.0  0.64303  0.90568  0.28505  1.0000
  C   C240      1.0  0.61301  0.87499  0.28068  1.0000
  H   H155      1.0  0.65296  0.91769  0.22535  1.0000
  H   H156      1.0  0.60275  0.86620  0.21853  1.0000
  C   C241      1.0  0.90894  0.77231  0.28588  1.0000
  C   C242      1.0  0.87829  0.77170  0.28142  1.0000
  H   H157      1.0  0.92115  0.77462  0.22639  1.0000
  H   H158      1.0  0.86962  0.77336  0.21925  1.0000
  C   C243      1.0  0.74357  0.63981  0.28538  1.0000
  C   C244      1.0  0.74426  0.60980  0.28116  1.0000
  H   H159      1.0  0.74152  0.64974  0.22565  1.0000
  H   H160      1.0  0.74280  0.59952  0.21903  1.0000
  C   C245      1.0  0.87608  0.60691  0.28593  1.0000
  C   C246      1.0  0.90616  0.63754  0.28172  1.0000
  H   H161      1.0  0.86621  0.59476  0.22635  1.0000
  H   H162      1.0  0.91652  0.64628  0.21964  1.0000
  C   C247      1.0  0.97275  0.76378  0.33453  1.0000
  C   C248      1.0  0.93852  0.74736  0.35490  1.0000
  C   C249      1.0  0.92230  0.71281  0.36590  1.0000
  H   H163      1.0  0.98411  0.78878  0.34027  1.0000
  H   H164      1.0  0.89737  0.70052  0.38014  1.0000
  C   C250      1.0  0.59676  0.79980  0.36436  1.0000
  C   C251      1.0  0.58044  0.76523  0.35383  1.0000
  C   C252      1.0  0.54616  0.74880  0.33422  1.0000
  H   H165      1.0  0.62169  0.81205  0.37868  1.0000
  H   H166      1.0  0.53474  0.72383  0.34084  1.0000
  C   C253      1.0  0.75194  0.71208  0.33430  1.0000
  C   C254      1.0  0.76837  0.69424  0.35406  1.0000
  C   C255      1.0  0.80293  0.71251  0.36474  1.0000
  H   H167      1.0  0.72696  0.69852  0.34079  1.0000
  H   H168      1.0  0.81519  0.69983  0.37895  1.0000
  C   C256      1.0  0.71591  0.80000  0.36513  1.0000
  C   C257      1.0  0.75047  0.81830  0.35437  1.0000
  C   C258      1.0  0.76691  0.80047  0.33458  1.0000
  H   H169      1.0  0.70363  0.81265  0.37939  1.0000
  H   H170      1.0  0.79190  0.81407  0.34052  1.0000
  C   C259      1.0  0.80368  0.54306  0.33451  1.0000
  C   C260      1.0  0.82149  0.57730  0.35464  1.0000
  C   C261      1.0  0.80319  0.59356  0.36545  1.0000
  H   H171      1.0  0.81729  0.53168  0.34047  1.0000
  H   H172      1.0  0.81584  0.61849  0.37967  1.0000
  C   C262      1.0  0.71572  0.91905  0.36422  1.0000
  C   C263      1.0  0.69744  0.93534  0.35369  1.0000
  C   C264      1.0  0.71529  0.96963  0.33414  1.0000
  H   H173      1.0  0.70305  0.89412  0.37846  1.0000
  H   H174      1.0  0.70172  0.98104  0.34073  1.0000
  C   C265      1.0  0.66220  0.75118  0.35648  1.0000
  C   C266      1.0  0.64987  0.75632  0.43866  1.0000
  C   C267      1.0  0.61928  0.75572  0.44431  1.0000
  C   C268      1.0  0.59957  0.74935  0.36520  1.0000
  H   H175      1.0  0.66506  0.76385  0.49416  1.0000
  N   N19       1.0  0.61030  0.76309  0.52471  1.0000
  H   H176      1.0  0.62380  0.76738  0.57867  1.0000
  H   H177      1.0  0.58895  0.76176  0.53247  1.0000
  C   C269      1.0  0.76459  0.91423  0.35610  1.0000
  C   C270      1.0  0.75934  0.89676  0.43835  1.0000
  C   C271      1.0  0.75990  0.86675  0.44427  1.0000
  C   C272      1.0  0.76628  0.85330  0.36537  1.0000
  H   H178      1.0  0.75174  0.90441  0.49372  1.0000
  N   N20       1.0  0.75245  0.85046  0.52478  1.0000
  H   H179      1.0  0.74829  0.85980  0.57868  1.0000
  H   H180      1.0  0.75391  0.83052  0.53281  1.0000
  C   C273      1.0  0.60165  0.85350  0.35612  1.0000
  C   C274      1.0  0.61913  0.86583  0.43829  1.0000
  C   C275      1.0  0.64909  0.89643  0.44404  1.0000
  C   C276      1.0  0.66245  0.91619  0.36500  1.0000
  H   H181      1.0  0.61147  0.85061  0.49375  1.0000
  N   N21       1.0  0.66542  0.90539  0.52448  1.0000
  H   H182      1.0  0.65621  0.89187  0.57839  1.0000
  H   H183      1.0  0.68543  0.92676  0.53230  1.0000
  C   C277      1.0  0.85665  0.76137  0.35653  1.0000
  C   C278      1.0  0.86888  0.75605  0.43869  1.0000
  C   C279      1.0  0.89947  0.75667  0.44462  1.0000
  C   C280      1.0  0.91928  0.76314  0.36561  1.0000
  H   H184      1.0  0.85360  0.74838  0.49403  1.0000
  N   N22       1.0  0.90832  0.74923  0.52512  1.0000
  H   H185      1.0  0.89482  0.74504  0.57901  1.0000
  H   H186      1.0  0.92977  0.75078  0.53318  1.0000
  C   C281      1.0  0.75439  0.59847  0.35666  1.0000
  C   C282      1.0  0.75952  0.61597  0.43880  1.0000
  C   C283      1.0  0.75889  0.64593  0.44448  1.0000
  C   C284      1.0  0.75250  0.65923  0.36530  1.0000
  H   H187      1.0  0.76705  0.60831  0.49432  1.0000
  N   N23       1.0  0.76623  0.66227  0.52489  1.0000
  H   H188      1.0  0.77052  0.65307  0.57885  1.0000
  H   H189      1.0  0.76486  0.68228  0.53264  1.0000
  C   C285      1.0  0.91736  0.65907  0.35703  1.0000
  C   C286      1.0  0.89980  0.64679  0.43915  1.0000
  C   C287      1.0  0.86980  0.61622  0.44475  1.0000
  C   C288      1.0  0.85651  0.59649  0.36555  1.0000
  H   H190      1.0  0.90738  0.66201  0.49460  1.0000
  N   N24       1.0  0.85342  0.60730  0.52513  1.0000
  H   H191      1.0  0.86269  0.62073  0.57914  1.0000
  H   H192      1.0  0.83349  0.58586  0.53297  1.0000
