data_image0
_chemical_formula_structural       C4NH2NH2C4NH2NH2C4NH2NH2C4NH2NH2C2NH2NH2C2NH2NH2C2NH2NH2C2NH2NH2C2NH2NH2C2NH2NH2C2NH2NH2C2NH2NH2C4NH2NH2C4NH2NH2C4NH2NH2C4NH2NH2C4NH2NH2C4NH2NH2C4NH2NH2C4NH2NH2C2NH2NH2C2NH2NH2C2NH2NH2C2NH2NH2C2NH2NH2C2NH2NH2C2NH2NH2C2NH2NH2C2NH2NH2C2NH2NH2CNCNCNCNCNCNCNCNCNCNCNCNCNCNCNCNCNCNCNCNCNCNCNCNCNCNCNCNCNCNCNCNCNCNCNCNCNCNCNCNCNCNCNCNCNCNCNCNCNCNCNCNCNCNCNCNCNCNCNCNC2NH2NH2C2NH2NH2C2NH2NH2C2NH2NH2C4NH2NH2C4NH2NH2C4NH2NH2C4NH2NH2C4NH2NH2C4NH2NH2C4NH2NH2C4NH2NH2C2NH2NH2C2NH2NH2C2NH2NH2C2NH2NH2C2NH2NH2C2NH2NH2C2NH2NH2C2NH2NH2C4NH2NH2C4NH2NH2C4NH2NH2C4NH2NH2C4NH2NH2C4NH2NH2C4NH2NH2C4NH2NH2C4NH2NH2C4NH2NH2
_chemical_formula_sum              "C240 N180 H240"
_cell_length_a       43.7574
_cell_length_b       43.7574
_cell_length_c       14.7813
_cell_angle_alpha    90
_cell_angle_beta     90
_cell_angle_gamma    90

_space_group_name_H-M_alt    "P 1"
_space_group_IT_number       1

loop_
  _space_group_symop_operation_xyz
  'x, y, z'

loop_
  _atom_site_type_symbol
  _atom_site_label
  _atom_site_symmetry_multiplicity
  _atom_site_fract_x
  _atom_site_fract_y
  _atom_site_fract_z
  _atom_site_occupancy
  C   C1        1.0  0.37829  0.05842  0.34796  1.0000
  C   C2        1.0  0.36308  0.05359  0.26359  1.0000
  C   C3        1.0  0.33126  0.04594  0.26356  1.0000
  C   C4        1.0  0.31588  0.04155  0.34791  1.0000
  N   N1        1.0  0.31513  0.04384  0.18406  1.0000
  H   H1        1.0  0.32324  0.05058  0.12664  1.0000
  H   H2        1.0  0.29363  0.03848  0.18220  1.0000
  N   N2        1.0  0.37935  0.05546  0.18428  1.0000
  H   H3        1.0  0.40094  0.06043  0.18266  1.0000
  H   H4        1.0  0.37130  0.04860  0.12690  1.0000
  C   C5        1.0  0.63651  0.95638  0.34800  1.0000
  C   C6        1.0  0.65172  0.96119  0.26363  1.0000
  C   C7        1.0  0.68355  0.96883  0.26359  1.0000
  C   C8        1.0  0.69893  0.97322  0.34795  1.0000
  N   N3        1.0  0.69968  0.97091  0.18410  1.0000
  H   H5        1.0  0.69157  0.96415  0.12669  1.0000
  H   H6        1.0  0.72118  0.97626  0.18224  1.0000
  N   N4        1.0  0.63546  0.95932  0.18432  1.0000
  H   H7        1.0  0.61386  0.95437  0.18270  1.0000
  H   H8        1.0  0.64351  0.96618  0.12695  1.0000
  C   C9        1.0  0.95637  0.37829  0.34799  1.0000
  C   C10       1.0  0.96121  0.36309  0.26362  1.0000
  C   C11       1.0  0.96882  0.33126  0.26360  1.0000
  C   C12       1.0  0.97323  0.31588  0.34796  1.0000
  N   N5        1.0  0.97084  0.31512  0.18410  1.0000
  H   H9        1.0  0.96402  0.32323  0.12675  1.0000
  H   H10       1.0  0.97616  0.29361  0.18222  1.0000
  N   N6        1.0  0.95939  0.37934  0.18428  1.0000
  H   H11       1.0  0.95451  0.40096  0.18273  1.0000
  H   H12       1.0  0.96635  0.37130  0.12700  1.0000
  C   C13       1.0  0.05843  0.63651  0.34797  1.0000
  C   C14       1.0  0.05362  0.65172  0.26359  1.0000
  C   C15       1.0  0.04594  0.68354  0.26356  1.0000
  C   C16       1.0  0.04155  0.69891  0.34793  1.0000
  N   N7        1.0  0.04382  0.69968  0.18409  1.0000
  H   H13       1.0  0.05042  0.69156  0.12653  1.0000
  H   H14       1.0  0.03836  0.72115  0.18219  1.0000
  N   N8        1.0  0.05555  0.63546  0.18428  1.0000
  H   H15       1.0  0.06054  0.61387  0.18267  1.0000
  H   H16       1.0  0.04875  0.64351  0.12684  1.0000
  C   C17       1.0  0.18355  0.54599  0.26484  1.0000
  C   C18       1.0  0.15172  0.55361  0.26490  1.0000
  N   N9        1.0  0.19969  0.54397  0.18534  1.0000
  H   H17       1.0  0.22117  0.53855  0.18336  1.0000
  H   H18       1.0  0.19157  0.55071  0.12791  1.0000
  N   N10       1.0  0.13547  0.55548  0.18556  1.0000
  H   H19       1.0  0.11386  0.56036  0.18399  1.0000
  H   H20       1.0  0.14350  0.54845  0.12835  1.0000
  C   C19       1.0  0.83125  0.46882  0.26481  1.0000
  C   C20       1.0  0.86308  0.46119  0.26487  1.0000
  N   N11       1.0  0.81512  0.47088  0.18530  1.0000
  H   H21       1.0  0.79363  0.47624  0.18337  1.0000
  H   H22       1.0  0.82324  0.46408  0.12793  1.0000
  N   N12       1.0  0.87934  0.45935  0.18555  1.0000
  H   H23       1.0  0.90093  0.45439  0.18391  1.0000
  H   H24       1.0  0.87130  0.46625  0.12821  1.0000
  C   C21       1.0  0.54595  0.83127  0.26479  1.0000
  C   C22       1.0  0.55363  0.86308  0.26486  1.0000
  N   N13       1.0  0.54383  0.81514  0.18530  1.0000
  H   H25       1.0  0.53836  0.79366  0.18336  1.0000
  H   H26       1.0  0.55043  0.82326  0.12776  1.0000
  N   N14       1.0  0.55556  0.87934  0.18555  1.0000
  H   H27       1.0  0.56057  0.90093  0.18393  1.0000
  H   H28       1.0  0.54875  0.87130  0.12812  1.0000
  C   C23       1.0  0.46883  0.18354  0.26484  1.0000
  C   C24       1.0  0.46119  0.15172  0.26490  1.0000
  N   N15       1.0  0.47087  0.19968  0.18534  1.0000
  H   H29       1.0  0.47631  0.22116  0.18337  1.0000
  H   H30       1.0  0.46418  0.19156  0.12788  1.0000
  N   N16       1.0  0.45932  0.13547  0.18555  1.0000
  H   H31       1.0  0.45439  0.11387  0.18400  1.0000
  H   H32       1.0  0.46625  0.14350  0.12823  1.0000
  C   C25       1.0  0.20966  0.09914  0.26454  1.0000
  C   C26       1.0  0.19681  0.12937  0.26466  1.0000
  N   N17       1.0  0.21767  0.08509  0.18494  1.0000
  H   H33       1.0  0.22558  0.06438  0.18266  1.0000
  H   H34       1.0  0.21834  0.09569  0.12762  1.0000
  N   N18       1.0  0.18856  0.14348  0.18536  1.0000
  H   H35       1.0  0.17940  0.16366  0.18391  1.0000
  H   H36       1.0  0.18753  0.13273  0.12834  1.0000
  C   C27       1.0  0.80518  0.91567  0.26448  1.0000
  C   C28       1.0  0.81800  0.88543  0.26464  1.0000
  N   N19       1.0  0.79724  0.92977  0.18488  1.0000
  H   H37       1.0  0.78931  0.95046  0.18268  1.0000
  H   H38       1.0  0.79655  0.91916  0.12759  1.0000
  N   N20       1.0  0.82625  0.87131  0.18538  1.0000
  H   H39       1.0  0.83531  0.85108  0.18384  1.0000
  H   H40       1.0  0.82714  0.88196  0.12817  1.0000
  C   C29       1.0  0.91568  0.20961  0.26446  1.0000
  C   C30       1.0  0.88542  0.19682  0.26462  1.0000
  N   N21       1.0  0.92980  0.21751  0.18488  1.0000
  H   H41       1.0  0.95053  0.22536  0.18267  1.0000
  H   H42       1.0  0.91928  0.21806  0.12744  1.0000
  N   N22       1.0  0.87127  0.18861  0.18536  1.0000
  H   H43       1.0  0.85103  0.17958  0.18384  1.0000
  H   H44       1.0  0.88187  0.18776  0.12809  1.0000
  C   C31       1.0  0.09913  0.80515  0.26451  1.0000
  C   C32       1.0  0.12936  0.81798  0.26465  1.0000
  N   N23       1.0  0.08503  0.79719  0.18492  1.0000
  H   H45       1.0  0.06432  0.78931  0.18268  1.0000
  H   H46       1.0  0.09560  0.79657  0.12755  1.0000
  N   N24       1.0  0.14348  0.82620  0.18535  1.0000
  H   H47       1.0  0.16369  0.83531  0.18392  1.0000
  H   H48       1.0  0.13282  0.82713  0.12818  1.0000
  C   C33       1.0  0.32306  0.64485  0.34854  1.0000
  C   C34       1.0  0.31793  0.62933  0.26471  1.0000
  C   C35       1.0  0.30510  0.59910  0.26480  1.0000
  C   C36       1.0  0.29927  0.58382  0.34872  1.0000
  N   N25       1.0  0.29708  0.58498  0.18531  1.0000
  H   H49       1.0  0.29633  0.59557  0.12798  1.0000
  H   H50       1.0  0.28913  0.56429  0.18326  1.0000
  N   N26       1.0  0.32615  0.64341  0.18533  1.0000
  H   H51       1.0  0.33523  0.66361  0.18365  1.0000
  H   H52       1.0  0.32700  0.63272  0.12818  1.0000
  C   C37       1.0  0.69175  0.36995  0.34856  1.0000
  C   C38       1.0  0.69690  0.38547  0.26471  1.0000
  C   C39       1.0  0.70973  0.41570  0.26480  1.0000
  C   C40       1.0  0.71551  0.43098  0.34876  1.0000
  N   N27       1.0  0.71777  0.42981  0.18532  1.0000
  H   H53       1.0  0.71855  0.41921  0.12801  1.0000
  H   H54       1.0  0.72571  0.45050  0.18326  1.0000
  N   N28       1.0  0.68870  0.37139  0.18533  1.0000
  H   H55       1.0  0.67961  0.35118  0.18365  1.0000
  H   H56       1.0  0.68786  0.38207  0.12817  1.0000
  C   C41       1.0  0.64485  0.69175  0.34857  1.0000
  C   C42       1.0  0.62933  0.69689  0.26474  1.0000
  C   C43       1.0  0.59911  0.70975  0.26485  1.0000
  C   C44       1.0  0.58382  0.71552  0.34880  1.0000
  N   N29       1.0  0.58503  0.71783  0.18535  1.0000
  H   H57       1.0  0.59566  0.71865  0.12810  1.0000
  H   H58       1.0  0.56435  0.72581  0.18327  1.0000
  N   N30       1.0  0.64337  0.68866  0.18532  1.0000
  H   H59       1.0  0.66355  0.67950  0.18373  1.0000
  H   H60       1.0  0.63264  0.68774  0.12825  1.0000
  C   C45       1.0  0.36995  0.32304  0.34853  1.0000
  C   C46       1.0  0.38546  0.31791  0.26468  1.0000
  C   C47       1.0  0.41570  0.30510  0.26476  1.0000
  C   C48       1.0  0.43098  0.29927  0.34869  1.0000
  N   N31       1.0  0.42985  0.29709  0.18530  1.0000
  H   H61       1.0  0.41934  0.29646  0.12785  1.0000
  H   H62       1.0  0.45057  0.28921  0.18324  1.0000
  N   N32       1.0  0.37137  0.32609  0.18530  1.0000
  H   H63       1.0  0.35115  0.33516  0.18364  1.0000
  H   H64       1.0  0.38203  0.32689  0.12810  1.0000
  C   C49       1.0  0.21866  0.90655  0.34808  1.0000
  C   C50       1.0  0.22107  0.92276  0.26425  1.0000
  C   C51       1.0  0.22824  0.95484  0.26423  1.0000
  C   C52       1.0  0.23099  0.97104  0.34803  1.0000
  N   N33       1.0  0.23370  0.97009  0.18466  1.0000
  H   H65       1.0  0.23657  0.95969  0.12762  1.0000
  H   H66       1.0  0.23817  0.99179  0.18252  1.0000
  N   N34       1.0  0.21551  0.90747  0.18484  1.0000
  H   H67       1.0  0.21046  0.88589  0.18298  1.0000
  H   H68       1.0  0.21266  0.91785  0.12775  1.0000
  C   C53       1.0  0.79614  0.10824  0.34806  1.0000
  C   C54       1.0  0.79371  0.09203  0.26425  1.0000
  C   C55       1.0  0.78654  0.05996  0.26423  1.0000
  C   C56       1.0  0.78381  0.04375  0.34803  1.0000
  N   N35       1.0  0.78106  0.04471  0.18466  1.0000
  H   H69       1.0  0.77817  0.05511  0.12763  1.0000
  H   H70       1.0  0.77658  0.02301  0.18252  1.0000
  N   N36       1.0  0.79925  0.10733  0.18482  1.0000
  H   H71       1.0  0.80430  0.12890  0.18296  1.0000
  H   H72       1.0  0.80209  0.09695  0.12773  1.0000
  C   C57       1.0  0.10823  0.21867  0.34808  1.0000
  C   C58       1.0  0.09202  0.22108  0.26426  1.0000
  C   C59       1.0  0.05995  0.22828  0.26424  1.0000
  C   C60       1.0  0.04376  0.23099  0.34806  1.0000
  N   N37       1.0  0.04472  0.23379  0.18467  1.0000
  H   H73       1.0  0.05514  0.23670  0.12768  1.0000
  H   H74       1.0  0.02302  0.23828  0.18252  1.0000
  N   N38       1.0  0.10729  0.21551  0.18480  1.0000
  H   H75       1.0  0.12886  0.21039  0.18303  1.0000
  H   H76       1.0  0.09689  0.21259  0.12779  1.0000
  C   C61       1.0  0.90657  0.79614  0.34805  1.0000
  C   C62       1.0  0.92278  0.79371  0.26422  1.0000
  C   C63       1.0  0.95486  0.78656  0.26420  1.0000
  C   C64       1.0  0.97105  0.78382  0.34802  1.0000
  N   N39       1.0  0.97013  0.78111  0.18466  1.0000
  H   H77       1.0  0.95979  0.77838  0.12747  1.0000
  H   H78       1.0  0.99185  0.77673  0.18249  1.0000
  N   N40       1.0  0.90746  0.79922  0.18481  1.0000
  H   H79       1.0  0.88588  0.80424  0.18296  1.0000
  H   H80       1.0  0.91782  0.80201  0.12767  1.0000
  C   C65       1.0  0.28656  0.45484  0.26524  1.0000
  C   C66       1.0  0.29375  0.42277  0.26525  1.0000
  N   N41       1.0  0.28105  0.47008  0.18568  1.0000
  H   H81       1.0  0.27662  0.49180  0.18346  1.0000
  H   H82       1.0  0.27825  0.45970  0.12858  1.0000
  N   N42       1.0  0.29930  0.40749  0.18580  1.0000
  H   H83       1.0  0.30443  0.38593  0.18401  1.0000
  H   H84       1.0  0.30231  0.41794  0.12889  1.0000
  C   C67       1.0  0.72823  0.55994  0.26525  1.0000
  C   C68       1.0  0.72105  0.59202  0.26527  1.0000
  N   N43       1.0  0.73369  0.54469  0.18568  1.0000
  H   H85       1.0  0.73817  0.52299  0.18350  1.0000
  H   H86       1.0  0.73657  0.55511  0.12865  1.0000
  N   N44       1.0  0.71547  0.60730  0.18584  1.0000
  H   H87       1.0  0.71043  0.62888  0.18396  1.0000
  H   H88       1.0  0.71259  0.59691  0.12879  1.0000
  C   C69       1.0  0.45486  0.72821  0.26521  1.0000
  C   C70       1.0  0.42278  0.72107  0.26524  1.0000
  N   N45       1.0  0.47015  0.73363  0.18567  1.0000
  H   H89       1.0  0.49187  0.73801  0.18348  1.0000
  H   H90       1.0  0.45981  0.73634  0.12846  1.0000
  N   N46       1.0  0.40747  0.71555  0.18582  1.0000
  H   H91       1.0  0.38588  0.71055  0.18396  1.0000
  H   H92       1.0  0.41783  0.71274  0.12870  1.0000
  C   C71       1.0  0.55994  0.28657  0.26525  1.0000
  C   C72       1.0  0.59202  0.29375  0.26527  1.0000
  N   N47       1.0  0.54468  0.28110  0.18570  1.0000
  H   H93       1.0  0.52297  0.27670  0.18348  1.0000
  H   H94       1.0  0.55505  0.27835  0.12855  1.0000
  N   N48       1.0  0.60730  0.29930  0.18582  1.0000
  H   H95       1.0  0.62887  0.30437  0.18404  1.0000
  H   H96       1.0  0.59691  0.30220  0.12878  1.0000
  C   C73       1.0  0.22704  0.26464  0.26491  1.0000
  C   C74       1.0  0.24874  0.28931  0.26508  1.0000
  N   N49       1.0  0.21836  0.25098  0.18540  1.0000
  H   H97       1.0  0.20385  0.23424  0.18323  1.0000
  H   H98       1.0  0.22901  0.25450  0.12900  1.0000
  N   N50       1.0  0.25747  0.30308  0.18578  1.0000
  H   H99       1.0  0.27160  0.32016  0.18429  1.0000
  H   H100      1.0  0.24668  0.29975  0.12953  1.0000
  C   C75       1.0  0.78778  0.75015  0.26491  1.0000
  C   C76       1.0  0.76607  0.72547  0.26509  1.0000
  N   N51       1.0  0.79648  0.76377  0.18536  1.0000
  H   H101      1.0  0.81092  0.78058  0.18331  1.0000
  H   H102      1.0  0.78571  0.76033  0.12912  1.0000
  N   N52       1.0  0.75737  0.71167  0.18583  1.0000
  H   H103      1.0  0.74316  0.69466  0.18419  1.0000
  H   H104      1.0  0.76803  0.71509  0.12938  1.0000
  C   C77       1.0  0.75015  0.22703  0.26491  1.0000
  C   C78       1.0  0.72549  0.24875  0.26509  1.0000
  N   N53       1.0  0.76379  0.21831  0.18540  1.0000
  H   H105      1.0  0.78051  0.20377  0.18325  1.0000
  H   H106      1.0  0.76026  0.22893  0.12895  1.0000
  N   N54       1.0  0.71172  0.25749  0.18582  1.0000
  H   H107      1.0  0.69473  0.27172  0.18419  1.0000
  H   H108      1.0  0.71515  0.24688  0.12933  1.0000
  C   C79       1.0  0.26465  0.78777  0.26490  1.0000
  C   C80       1.0  0.28930  0.76605  0.26508  1.0000
  N   N55       1.0  0.25101  0.79647  0.18539  1.0000
  H   H109      1.0  0.23428  0.81101  0.18323  1.0000
  H   H110      1.0  0.25454  0.78586  0.12895  1.0000
  N   N56       1.0  0.30306  0.75729  0.18577  1.0000
  H   H111      1.0  0.32009  0.74310  0.18429  1.0000
  H   H112      1.0  0.29965  0.76793  0.12932  1.0000
  C   C81       1.0  0.49663  0.01969  0.26446  1.0000
  C   C82       1.0  0.51817  0.99511  0.26445  1.0000
  N   N57       1.0  0.48785  0.03345  0.18513  1.0000
  H   H113      1.0  0.47348  0.05031  0.18337  1.0000
  H   H114      1.0  0.49841  0.02995  0.12856  1.0000
  N   N58       1.0  0.52695  0.98138  0.18509  1.0000
  H   H115      1.0  0.54125  0.96445  0.18345  1.0000
  H   H116      1.0  0.51626  0.98479  0.12870  1.0000
  C   C83       1.0  0.99511  0.49662  0.26446  1.0000
  C   C84       1.0  0.01970  0.51816  0.26446  1.0000
  N   N59       1.0  0.98140  0.48782  0.18508  1.0000
  H   H117      1.0  0.96447  0.47353  0.18344  1.0000
  H   H118      1.0  0.98482  0.49850  0.12868  1.0000
  N   N60       1.0  0.03347  0.52692  0.18514  1.0000
  H   H119      1.0  0.05033  0.54130  0.18338  1.0000
  H   H120      1.0  0.02998  0.51636  0.12858  1.0000
  C   C85       1.0  0.23367  0.05638  0.34818  1.0000
  N   N61       1.0  0.22235  0.02715  0.34817  1.0000
  C   C86       1.0  0.24146  0.00229  0.34804  1.0000
  N   N62       1.0  0.27218  0.00729  0.34793  1.0000
  C   C87       1.0  0.28385  0.03607  0.34793  1.0000
  N   N63       1.0  0.26445  0.06022  0.34807  1.0000
  C   C88       1.0  0.78114  0.95841  0.34818  1.0000
  N   N64       1.0  0.79246  0.98764  0.34816  1.0000
  C   C89       1.0  0.77334  0.01250  0.34804  1.0000
  N   N65       1.0  0.74263  0.00749  0.34795  1.0000
  C   C90       1.0  0.73096  0.97871  0.34795  1.0000
  N   N66       1.0  0.75036  0.95457  0.34808  1.0000
  C   C91       1.0  0.95841  0.23367  0.34817  1.0000
  N   N67       1.0  0.98764  0.22235  0.34815  1.0000
  C   C92       1.0  0.01251  0.24147  0.34802  1.0000
  N   N68       1.0  0.00750  0.27219  0.34794  1.0000
  C   C93       1.0  0.97872  0.28385  0.34793  1.0000
  N   N69       1.0  0.95458  0.26445  0.34806  1.0000
  C   C94       1.0  0.05639  0.78113  0.34818  1.0000
  N   N70       1.0  0.02716  0.79245  0.34816  1.0000
  C   C95       1.0  0.00229  0.77334  0.34802  1.0000
  N   N71       1.0  0.00730  0.74262  0.34793  1.0000
  C   C96       1.0  0.03607  0.73095  0.34793  1.0000
  N   N72       1.0  0.06022  0.75035  0.34808  1.0000
  C   C97       1.0  0.28113  0.55639  0.34885  1.0000
  N   N73       1.0  0.29246  0.52716  0.34887  1.0000
  C   C98       1.0  0.27334  0.50229  0.34901  1.0000
  N   N74       1.0  0.24262  0.50730  0.34912  1.0000
  C   C99       1.0  0.23095  0.53607  0.34911  1.0000
  N   N75       1.0  0.25035  0.56022  0.34898  1.0000
  C   C100      1.0  0.73366  0.45840  0.34885  1.0000
  N   N76       1.0  0.72233  0.48763  0.34889  1.0000
  C   C101      1.0  0.74145  0.51250  0.34901  1.0000
  N   N77       1.0  0.77217  0.50749  0.34910  1.0000
  C   C102      1.0  0.78384  0.47871  0.34908  1.0000
  N   N78       1.0  0.76444  0.45457  0.34896  1.0000
  C   C103      1.0  0.55639  0.73367  0.34887  1.0000
  N   N79       1.0  0.52716  0.72235  0.34890  1.0000
  C   C104      1.0  0.50230  0.74146  0.34902  1.0000
  N   N80       1.0  0.50731  0.77218  0.34910  1.0000
  C   C105      1.0  0.53608  0.78385  0.34910  1.0000
  N   N81       1.0  0.56023  0.76445  0.34898  1.0000
  C   C106      1.0  0.45841  0.28113  0.34885  1.0000
  N   N82       1.0  0.48764  0.29245  0.34887  1.0000
  C   C107      1.0  0.51251  0.27334  0.34902  1.0000
  N   N83       1.0  0.50750  0.24262  0.34913  1.0000
  C   C108      1.0  0.47873  0.23095  0.34911  1.0000
  N   N84       1.0  0.45458  0.25034  0.34897  1.0000
  C   C109      1.0  0.18125  0.17602  0.34873  1.0000
  N   N85       1.0  0.15082  0.18280  0.34837  1.0000
  C   C110      1.0  0.14056  0.21226  0.34810  1.0000
  N   N86       1.0  0.16173  0.23525  0.34808  1.0000
  C   C111      1.0  0.19241  0.22938  0.34858  1.0000
  N   N87       1.0  0.20165  0.19959  0.34891  1.0000
  C   C112      1.0  0.83355  0.83879  0.34873  1.0000
  N   N88       1.0  0.86398  0.83200  0.34837  1.0000
  C   C113      1.0  0.87424  0.80254  0.34810  1.0000
  N   N89       1.0  0.85308  0.77956  0.34809  1.0000
  C   C114      1.0  0.82239  0.78542  0.34860  1.0000
  N   N90       1.0  0.81315  0.81521  0.34893  1.0000
  C   C115      1.0  0.83879  0.18126  0.34875  1.0000
  N   N91       1.0  0.83200  0.15082  0.34837  1.0000
  C   C116      1.0  0.80254  0.14057  0.34811  1.0000
  N   N92       1.0  0.77956  0.16173  0.34810  1.0000
  C   C117      1.0  0.78542  0.19241  0.34861  1.0000
  N   N93       1.0  0.81520  0.20165  0.34894  1.0000
  C   C118      1.0  0.17601  0.83353  0.34873  1.0000
  N   N94       1.0  0.18280  0.86397  0.34838  1.0000
  C   C119      1.0  0.21225  0.87422  0.34812  1.0000
  N   N95       1.0  0.23524  0.85307  0.34810  1.0000
  C   C120      1.0  0.22937  0.82238  0.34859  1.0000
  N   N96       1.0  0.19959  0.81314  0.34891  1.0000
  C   C121      1.0  0.33355  0.67602  0.34847  1.0000
  N   N97       1.0  0.36398  0.68281  0.34879  1.0000
  C   C122      1.0  0.37424  0.71227  0.34910  1.0000
  N   N98       1.0  0.35308  0.73525  0.34917  1.0000
  C   C123      1.0  0.32239  0.72939  0.34872  1.0000
  N   N99       1.0  0.31315  0.69960  0.34835  1.0000
  C   C124      1.0  0.68126  0.33878  0.34847  1.0000
  N   N100      1.0  0.65082  0.33200  0.34880  1.0000
  C   C125      1.0  0.64057  0.30254  0.34910  1.0000
  N   N101      1.0  0.66172  0.27955  0.34917  1.0000
  C   C126      1.0  0.69241  0.28542  0.34871  1.0000
  N   N102      1.0  0.70165  0.31520  0.34834  1.0000
  C   C127      1.0  0.67602  0.68126  0.34846  1.0000
  N   N103      1.0  0.68280  0.65082  0.34879  1.0000
  C   C128      1.0  0.71226  0.64057  0.34909  1.0000
  N   N104      1.0  0.73525  0.66172  0.34915  1.0000
  C   C129      1.0  0.72939  0.69241  0.34869  1.0000
  N   N105      1.0  0.69960  0.70165  0.34833  1.0000
  C   C130      1.0  0.33878  0.33353  0.34846  1.0000
  N   N106      1.0  0.33200  0.36397  0.34878  1.0000
  C   C131      1.0  0.30255  0.37423  0.34908  1.0000
  N   N107      1.0  0.27955  0.35307  0.34916  1.0000
  C   C132      1.0  0.28542  0.32239  0.34870  1.0000
  N   N108      1.0  0.31520  0.31314  0.34834  1.0000
  C   C133      1.0  0.44778  0.10519  0.34929  1.0000
  N   N109      1.0  0.46962  0.08312  0.34946  1.0000
  C   C134      1.0  0.46170  0.05311  0.34873  1.0000
  N   N110      1.0  0.43169  0.04519  0.34795  1.0000
  C   C135      1.0  0.40961  0.06702  0.34802  1.0000
  N   N111      1.0  0.41780  0.09700  0.34864  1.0000
  C   C136      1.0  0.56702  0.90961  0.34931  1.0000
  N   N112      1.0  0.54519  0.93169  0.34944  1.0000
  C   C137      1.0  0.55311  0.96170  0.34873  1.0000
  N   N113      1.0  0.58312  0.96962  0.34797  1.0000
  C   C138      1.0  0.60519  0.94779  0.34806  1.0000
  N   N114      1.0  0.59701  0.91780  0.34867  1.0000
  C   C139      1.0  0.90960  0.44778  0.34927  1.0000
  N   N115      1.0  0.93168  0.46962  0.34944  1.0000
  C   C140      1.0  0.96169  0.46170  0.34873  1.0000
  N   N116      1.0  0.96961  0.43169  0.34796  1.0000
  C   C141      1.0  0.94778  0.40962  0.34802  1.0000
  N   N117      1.0  0.91780  0.41780  0.34862  1.0000
  C   C142      1.0  0.10519  0.56702  0.34930  1.0000
  N   N118      1.0  0.08311  0.54518  0.34946  1.0000
  C   C143      1.0  0.05311  0.55311  0.34873  1.0000
  N   N119      1.0  0.04519  0.58312  0.34796  1.0000
  C   C144      1.0  0.06702  0.60519  0.34804  1.0000
  N   N120      1.0  0.09700  0.59700  0.34864  1.0000
  C   C145      1.0  0.33124  0.04595  0.43230  1.0000
  C   C146      1.0  0.36307  0.05359  0.43232  1.0000
  N   N121      1.0  0.31509  0.04391  0.51177  1.0000
  H   H121      1.0  0.29361  0.03848  0.51370  1.0000
  H   H122      1.0  0.32319  0.05062  0.56923  1.0000
  N   N122      1.0  0.37930  0.05544  0.51170  1.0000
  H   H123      1.0  0.40091  0.06034  0.51331  1.0000
  H   H124      1.0  0.37126  0.04840  0.56888  1.0000
  C   C147      1.0  0.68356  0.96885  0.43235  1.0000
  C   C148      1.0  0.65174  0.96122  0.43236  1.0000
  N   N123      1.0  0.69971  0.97094  0.51182  1.0000
  H   H125      1.0  0.72120  0.97630  0.51368  1.0000
  H   H126      1.0  0.69160  0.96417  0.56923  1.0000
  N   N124      1.0  0.63549  0.95939  0.51170  1.0000
  H   H127      1.0  0.61390  0.95442  0.51340  1.0000
  H   H128      1.0  0.64355  0.96630  0.56902  1.0000
  C   C149      1.0  0.96888  0.33125  0.43235  1.0000
  C   C150      1.0  0.96119  0.36307  0.43236  1.0000
  N   N125      1.0  0.97103  0.31511  0.51180  1.0000
  H   H129      1.0  0.97650  0.29363  0.51369  1.0000
  H   H130      1.0  0.96445  0.32322  0.56939  1.0000
  N   N126      1.0  0.95927  0.37931  0.51170  1.0000
  H   H131      1.0  0.95426  0.40089  0.51337  1.0000
  H   H132      1.0  0.96609  0.37126  0.56911  1.0000
  C   C151      1.0  0.04594  0.68356  0.43232  1.0000
  C   C152      1.0  0.05359  0.65174  0.43233  1.0000
  N   N127      1.0  0.04386  0.69971  0.51178  1.0000
  H   H133      1.0  0.03842  0.72119  0.51370  1.0000
  H   H134      1.0  0.05052  0.69160  0.56928  1.0000
  N   N128      1.0  0.05545  0.63550  0.51170  1.0000
  H   H135      1.0  0.06039  0.61390  0.51331  1.0000
  H   H136      1.0  0.04851  0.64354  0.56900  1.0000
  C   C153      1.0  0.13651  0.55842  0.34929  1.0000
  C   C154      1.0  0.15174  0.55356  0.43363  1.0000
  C   C155      1.0  0.18355  0.54591  0.43359  1.0000
  C   C156      1.0  0.19892  0.54156  0.34919  1.0000
  N   N129      1.0  0.19970  0.54378  0.51306  1.0000
  H   H137      1.0  0.19160  0.55049  0.57052  1.0000
  H   H138      1.0  0.22120  0.53841  0.51485  1.0000
  N   N130      1.0  0.13549  0.55543  0.51297  1.0000
  H   H139      1.0  0.11389  0.56040  0.51465  1.0000
  H   H140      1.0  0.14354  0.54856  0.57032  1.0000
  C   C157      1.0  0.87828  0.45637  0.34926  1.0000
  C   C158      1.0  0.86306  0.46121  0.43360  1.0000
  C   C159      1.0  0.83124  0.46886  0.43356  1.0000
  C   C160      1.0  0.81587  0.47322  0.34916  1.0000
  N   N131      1.0  0.81509  0.47097  0.51301  1.0000
  H   H141      1.0  0.82319  0.46425  0.57047  1.0000
  H   H142      1.0  0.79359  0.47633  0.51483  1.0000
  N   N132      1.0  0.87930  0.45935  0.51293  1.0000
  H   H143      1.0  0.90090  0.45439  0.51461  1.0000
  H   H144      1.0  0.87125  0.46623  0.57029  1.0000
  C   C161      1.0  0.55843  0.87829  0.34926  1.0000
  C   C162      1.0  0.55356  0.86307  0.43359  1.0000
  C   C163      1.0  0.54595  0.83124  0.43354  1.0000
  C   C164      1.0  0.54157  0.81588  0.34914  1.0000
  N   N133      1.0  0.54390  0.81509  0.51301  1.0000
  H   H145      1.0  0.55068  0.82319  0.57040  1.0000
  H   H146      1.0  0.53857  0.79358  0.51483  1.0000
  N   N134      1.0  0.55537  0.87930  0.51297  1.0000
  H   H147      1.0  0.56027  0.90092  0.51457  1.0000
  H   H148      1.0  0.54840  0.87126  0.57022  1.0000
  C   C165      1.0  0.45637  0.13652  0.34929  1.0000
  C   C166      1.0  0.46120  0.15174  0.43364  1.0000
  C   C167      1.0  0.46889  0.18355  0.43360  1.0000
  C   C168      1.0  0.47325  0.19891  0.34919  1.0000
  N   N135      1.0  0.47105  0.19971  0.51303  1.0000
  H   H149      1.0  0.46448  0.19161  0.57063  1.0000
  H   H150      1.0  0.47651  0.22118  0.51488  1.0000
  N   N136      1.0  0.45928  0.13550  0.51297  1.0000
  H   H151      1.0  0.45428  0.11391  0.51464  1.0000
  H   H152      1.0  0.46609  0.14356  0.57039  1.0000
  C   C169      1.0  0.19174  0.14485  0.34861  1.0000
  C   C170      1.0  0.19686  0.12931  0.43242  1.0000
  C   C171      1.0  0.20970  0.09908  0.43229  1.0000
  C   C172      1.0  0.21553  0.08381  0.34835  1.0000
  N   N137      1.0  0.21773  0.08496  0.51176  1.0000
  H   H153      1.0  0.21849  0.09554  0.56909  1.0000
  H   H154      1.0  0.22569  0.06427  0.51379  1.0000
  N   N138      1.0  0.18864  0.14336  0.51182  1.0000
  H   H155      1.0  0.17954  0.16357  0.51352  1.0000
  H   H156      1.0  0.18778  0.13266  0.56895  1.0000
  C   C173      1.0  0.82305  0.86995  0.34860  1.0000
  C   C174      1.0  0.81791  0.88549  0.43242  1.0000
  C   C175      1.0  0.80507  0.91571  0.43229  1.0000
  C   C176      1.0  0.79930  0.93098  0.34831  1.0000
  N   N139      1.0  0.79701  0.92983  0.51176  1.0000
  H   H157      1.0  0.79623  0.91923  0.56907  1.0000
  H   H158      1.0  0.78906  0.95052  0.51379  1.0000
  N   N140      1.0  0.82611  0.87143  0.51182  1.0000
  H   H159      1.0  0.83521  0.85122  0.51354  1.0000
  H   H160      1.0  0.82696  0.88213  0.56896  1.0000
  C   C177      1.0  0.86995  0.19175  0.34858  1.0000
  C   C178      1.0  0.88549  0.19688  0.43239  1.0000
  C   C179      1.0  0.91571  0.20975  0.43224  1.0000
  C   C180      1.0  0.93099  0.21552  0.34827  1.0000
  N   N141      1.0  0.92980  0.21785  0.51172  1.0000
  H   H161      1.0  0.91917  0.21867  0.56898  1.0000
  H   H162      1.0  0.95047  0.22583  0.51379  1.0000
  N   N142      1.0  0.87147  0.18865  0.51184  1.0000
  H   H163      1.0  0.85130  0.17948  0.51345  1.0000
  H   H164      1.0  0.88222  0.18772  0.56888  1.0000
  C   C181      1.0  0.14484  0.82304  0.34861  1.0000
  C   C182      1.0  0.12931  0.81790  0.43244  1.0000
  C   C183      1.0  0.09907  0.80509  0.43232  1.0000
  C   C184      1.0  0.08382  0.79928  0.34836  1.0000
  N   N143      1.0  0.08492  0.79707  0.51176  1.0000
  H   H165      1.0  0.09544  0.79642  0.56921  1.0000
  H   H166      1.0  0.06420  0.78919  0.51381  1.0000
  N   N144      1.0  0.14339  0.82609  0.51184  1.0000
  H   H167      1.0  0.16361  0.83517  0.51353  1.0000
  H   H168      1.0  0.13272  0.82690  0.56902  1.0000
  C   C185      1.0  0.30514  0.59914  0.43255  1.0000
  C   C186      1.0  0.31799  0.62936  0.43247  1.0000
  N   N145      1.0  0.29712  0.58508  0.51214  1.0000
  H   H169      1.0  0.28921  0.56437  0.51439  1.0000
  H   H170      1.0  0.29644  0.59568  0.56945  1.0000
  N   N146      1.0  0.32625  0.64346  0.51179  1.0000
  H   H171      1.0  0.33541  0.66363  0.51326  1.0000
  H   H172      1.0  0.32728  0.63269  0.56879  1.0000
  C   C187      1.0  0.70962  0.41568  0.43261  1.0000
  C   C188      1.0  0.69680  0.38544  0.43249  1.0000
  N   N147      1.0  0.71757  0.42978  0.51219  1.0000
  H   H173      1.0  0.72551  0.45047  0.51437  1.0000
  H   H174      1.0  0.71828  0.41917  0.56949  1.0000
  N   N148      1.0  0.68854  0.37133  0.51178  1.0000
  H   H175      1.0  0.67948  0.35111  0.51335  1.0000
  H   H176      1.0  0.68764  0.38200  0.56896  1.0000
  C   C189      1.0  0.59912  0.70961  0.43263  1.0000
  C   C190      1.0  0.62937  0.69682  0.43251  1.0000
  N   N149      1.0  0.58498  0.71752  0.51220  1.0000
  H   H177      1.0  0.56426  0.72538  0.51438  1.0000
  H   H178      1.0  0.59551  0.71809  0.56964  1.0000
  N   N150      1.0  0.64351  0.68860  0.51180  1.0000
  H   H179      1.0  0.66375  0.67957  0.51335  1.0000
  H   H180      1.0  0.63288  0.68775  0.56904  1.0000
  C   C191      1.0  0.41567  0.30514  0.43254  1.0000
  C   C192      1.0  0.38544  0.31797  0.43246  1.0000
  N   N151      1.0  0.42977  0.29716  0.51212  1.0000
  H   H181      1.0  0.45048  0.28928  0.51436  1.0000
  H   H182      1.0  0.41919  0.29653  0.56949  1.0000
  N   N152      1.0  0.37134  0.32621  0.51178  1.0000
  H   H183      1.0  0.35114  0.33533  0.51324  1.0000
  H   H184      1.0  0.38202  0.32715  0.56892  1.0000
  C   C193      1.0  0.22826  0.95485  0.43185  1.0000
  C   C194      1.0  0.22107  0.92278  0.43188  1.0000
  N   N153      1.0  0.23380  0.97009  0.51138  1.0000
  H   H185      1.0  0.23823  0.99180  0.51359  1.0000
  H   H186      1.0  0.23662  0.95971  0.56848  1.0000
  N   N154      1.0  0.21551  0.90751  0.51136  1.0000
  H   H187      1.0  0.21038  0.88596  0.51318  1.0000
  H   H188      1.0  0.21251  0.91797  0.56825  1.0000
  C   C195      1.0  0.78655  0.05994  0.43185  1.0000
  C   C196      1.0  0.79374  0.09201  0.43186  1.0000
  N   N155      1.0  0.78107  0.04468  0.51140  1.0000
  H   H189      1.0  0.77658  0.02299  0.51355  1.0000
  H   H190      1.0  0.77818  0.05510  0.56842  1.0000
  N   N156      1.0  0.79931  0.10728  0.51132  1.0000
  H   H191      1.0  0.80436  0.12886  0.51322  1.0000
  H   H192      1.0  0.80219  0.09688  0.56835  1.0000
  C   C197      1.0  0.05993  0.22823  0.43189  1.0000
  C   C198      1.0  0.09201  0.22108  0.43189  1.0000
  N   N157      1.0  0.04465  0.23367  0.51141  1.0000
  H   H193      1.0  0.02293  0.23805  0.51358  1.0000
  H   H194      1.0  0.05498  0.23640  0.56861  1.0000
  N   N158      1.0  0.10732  0.21557  0.51133  1.0000
  H   H195      1.0  0.12890  0.21055  0.51322  1.0000
  H   H196      1.0  0.09695  0.21275  0.56845  1.0000
  C   C199      1.0  0.95487  0.78655  0.43185  1.0000
  C   C200      1.0  0.92279  0.79373  0.43186  1.0000
  N   N159      1.0  0.97013  0.78107  0.51138  1.0000
  H   H197      1.0  0.99184  0.77665  0.51358  1.0000
  H   H198      1.0  0.95977  0.77829  0.56853  1.0000
  N   N160      1.0  0.90752  0.79928  0.51134  1.0000
  H   H199      1.0  0.88595  0.80436  0.51314  1.0000
  H   H200      1.0  0.91792  0.80218  0.56836  1.0000
  C   C201      1.0  0.29614  0.40656  0.34908  1.0000
  C   C202      1.0  0.29372  0.42278  0.43287  1.0000
  C   C203      1.0  0.28654  0.45485  0.43285  1.0000
  C   C204      1.0  0.28381  0.47105  0.34902  1.0000
  N   N161      1.0  0.28106  0.47011  0.51241  1.0000
  H   H201      1.0  0.27816  0.45971  0.56944  1.0000
  H   H202      1.0  0.27658  0.49181  0.51452  1.0000
  N   N162      1.0  0.29927  0.40750  0.51232  1.0000
  H   H203      1.0  0.30433  0.38592  0.51421  1.0000
  H   H204      1.0  0.30212  0.41789  0.56938  1.0000
  C   C205      1.0  0.71866  0.60823  0.34909  1.0000
  C   C206      1.0  0.72110  0.59202  0.43289  1.0000
  C   C207      1.0  0.72828  0.55995  0.43287  1.0000
  C   C208      1.0  0.73099  0.54375  0.34906  1.0000
  N   N163      1.0  0.73377  0.54469  0.51242  1.0000
  H   H205      1.0  0.73668  0.55510  0.56944  1.0000
  H   H206      1.0  0.73825  0.52299  0.51454  1.0000
  N   N164      1.0  0.71556  0.60731  0.51233  1.0000
  H   H207      1.0  0.71051  0.62888  0.51422  1.0000
  H   H208      1.0  0.71272  0.59692  0.56941  1.0000
  C   C209      1.0  0.40657  0.71867  0.34908  1.0000
  C   C210      1.0  0.42279  0.72109  0.43287  1.0000
  C   C211      1.0  0.45486  0.72829  0.43286  1.0000
  C   C212      1.0  0.47105  0.73099  0.34903  1.0000
  N   N165      1.0  0.47010  0.73382  0.51241  1.0000
  H   H209      1.0  0.45968  0.73675  0.56940  1.0000
  H   H210      1.0  0.49179  0.73832  0.51454  1.0000
  N   N166      1.0  0.40753  0.71552  0.51235  1.0000
  H   H211      1.0  0.38597  0.71040  0.51415  1.0000
  H   H212      1.0  0.41794  0.71261  0.56935  1.0000
  C   C213      1.0  0.60823  0.29614  0.34910  1.0000
  C   C214      1.0  0.59202  0.29370  0.43291  1.0000
  C   C215      1.0  0.55994  0.28654  0.43290  1.0000
  C   C216      1.0  0.54376  0.28382  0.34907  1.0000
  N   N167      1.0  0.54466  0.28108  0.51242  1.0000
  H   H213      1.0  0.55500  0.27832  0.56961  1.0000
  H   H214      1.0  0.52294  0.27669  0.51457  1.0000
  N   N168      1.0  0.60732  0.29920  0.51235  1.0000
  H   H215      1.0  0.62890  0.30423  0.51422  1.0000
  H   H216      1.0  0.59695  0.30200  0.56948  1.0000
  C   C217      1.0  0.26114  0.30008  0.34881  1.0000
  C   C218      1.0  0.25016  0.28775  0.43240  1.0000
  C   C219      1.0  0.22550  0.26604  0.43224  1.0000
  C   C220      1.0  0.21472  0.25365  0.34850  1.0000
  N   N169      1.0  0.21176  0.25727  0.51156  1.0000
  H   H217      1.0  0.21512  0.26801  0.56787  1.0000
  H   H218      1.0  0.19470  0.24312  0.51300  1.0000
  N   N170      1.0  0.26382  0.29644  0.51191  1.0000
  H   H219      1.0  0.28054  0.31098  0.51406  1.0000
  H   H220      1.0  0.26030  0.28580  0.56833  1.0000
  C   C221      1.0  0.75366  0.71472  0.34881  1.0000
  C   C222      1.0  0.76462  0.72706  0.43240  1.0000
  C   C223      1.0  0.78929  0.74878  0.43224  1.0000
  C   C224      1.0  0.80008  0.76116  0.34851  1.0000
  N   N171      1.0  0.80301  0.75755  0.51157  1.0000
  H   H221      1.0  0.79965  0.74681  0.56789  1.0000
  H   H222      1.0  0.82008  0.77169  0.51302  1.0000
  N   N172      1.0  0.75095  0.71839  0.51190  1.0000
  H   H223      1.0  0.73422  0.70385  0.51405  1.0000
  H   H224      1.0  0.75445  0.72904  0.56830  1.0000
  C   C225      1.0  0.71472  0.26115  0.34881  1.0000
  C   C226      1.0  0.72705  0.25017  0.43241  1.0000
  C   C227      1.0  0.74876  0.22550  0.43224  1.0000
  C   C228      1.0  0.76115  0.21472  0.34852  1.0000
  N   N173      1.0  0.75751  0.21176  0.51157  1.0000
  H   H225      1.0  0.74675  0.21511  0.56786  1.0000
  H   H226      1.0  0.77164  0.19468  0.51301  1.0000
  N   N174      1.0  0.71839  0.26383  0.51194  1.0000
  H   H227      1.0  0.70390  0.28060  0.51398  1.0000
  H   H228      1.0  0.72908  0.26036  0.56829  1.0000
  C   C229      1.0  0.30008  0.75366  0.34881  1.0000
  C   C230      1.0  0.28777  0.76465  0.43241  1.0000
  C   C231      1.0  0.26603  0.78929  0.43224  1.0000
  C   C232      1.0  0.25364  0.80007  0.34850  1.0000
  N   N175      1.0  0.25725  0.80303  0.51153  1.0000
  H   H229      1.0  0.26783  0.79959  0.56807  1.0000
  H   H230      1.0  0.24300  0.82002  0.51311  1.0000
  N   N176      1.0  0.29649  0.75101  0.51193  1.0000
  H   H231      1.0  0.31104  0.73430  0.51408  1.0000
  H   H232      1.0  0.28588  0.75453  0.56838  1.0000
  C   C233      1.0  0.53020  0.98460  0.34873  1.0000
  C   C234      1.0  0.51969  0.99662  0.43301  1.0000
  C   C235      1.0  0.49511  0.01817  0.43303  1.0000
  C   C236      1.0  0.48460  0.03020  0.34875  1.0000
  N   N177      1.0  0.48139  0.02697  0.51240  1.0000
  H   H233      1.0  0.48481  0.01631  0.56883  1.0000
  H   H234      1.0  0.46447  0.04127  0.51399  1.0000
  N   N178      1.0  0.53343  0.98784  0.51234  1.0000
  H   H235      1.0  0.55029  0.97346  0.51409  1.0000
  H   H236      1.0  0.52994  0.99838  0.56893  1.0000
  C   C237      1.0  0.03020  0.53020  0.34874  1.0000
  C   C238      1.0  0.01816  0.51971  0.43301  1.0000
  C   C239      1.0  0.99661  0.49513  0.43303  1.0000
  C   C240      1.0  0.98460  0.48461  0.34874  1.0000
  N   N179      1.0  0.98781  0.48141  0.51241  1.0000
  H   H237      1.0  0.99846  0.48484  0.56884  1.0000
  H   H238      1.0  0.97350  0.46449  0.51400  1.0000
  N   N180      1.0  0.02693  0.53346  0.51234  1.0000
  H   H239      1.0  0.04132  0.55032  0.51410  1.0000
  H   H240      1.0  0.01638  0.52997  0.56892  1.0000
