data_image0
_chemical_formula_structural       COC2OCOHOHCNCNC5NC2H2CO2HCNC2H2CO2HCNH2OHCNCNCNCNCNCNC4HC3NHCO2HC4HC3NHCO2HC4HCHCO2HCNC2H2CO2HCNC2H2CO2HCNH2OHCNCNCNCNCNCNC4HC3NHCO2HC4HC3NHCO2HC4HCHCO2HCNC2H2CO2HCNC2H2CO2HCNC2H2COCNCNCNCNCNCNC4HC3NHCO2HC4HC3NHCO2HC4HC3NHCO2HCNC2H2CO2HCNC2H2CO2HCNC2H2COCNCNCNCNCNCNC4HC3NHCO2HC4HC3NHCO2HC4HC3NHCO2H
_chemical_formula_sum              "C168 O48 H72 N48"
_cell_length_a       44.031
_cell_length_b       44.031
_cell_length_c       14.9478
_cell_angle_alpha    90
_cell_angle_beta     90
_cell_angle_gamma    120

_space_group_name_H-M_alt    "P 1"
_space_group_IT_number       1

loop_
  _space_group_symop_operation_xyz
  'x, y, z'

loop_
  _atom_site_type_symbol
  _atom_site_label
  _atom_site_symmetry_multiplicity
  _atom_site_fract_x
  _atom_site_fract_y
  _atom_site_fract_z
  _atom_site_occupancy
  C   C1        1.0  0.02379  0.32234  0.32521  1.0000
  O   O1        1.0  0.02602  0.33759  0.25503  1.0000
  C   C2        1.0  0.02094  0.26525  0.33797  1.0000
  C   C3        1.0  0.02378  0.82234  0.32521  1.0000
  O   O2        1.0  0.02602  0.83759  0.25503  1.0000
  C   C4        1.0  0.02094  0.76524  0.33797  1.0000
  O   O3        1.0  0.02156  0.33709  0.39307  1.0000
  H   H1        1.0  0.02179  0.33003  0.44843  1.0000
  O   O4        1.0  0.02156  0.83708  0.39307  1.0000
  H   H2        1.0  0.02179  0.83003  0.44843  1.0000
  C   C5        1.0  0.04014  0.30234  0.32731  1.0000
  N   N1        1.0  0.03965  0.24832  0.34137  1.0000
  C   C6        1.0  0.04014  0.80234  0.32731  1.0000
  N   N2        1.0  0.03965  0.74832  0.34137  1.0000
  C   C7        1.0  0.07728  0.31961  0.32445  1.0000
  C   C8        1.0  0.07506  0.26409  0.33742  1.0000
  C   C9        1.0  0.07728  0.81961  0.32445  1.0000
  C   C10       1.0  0.07506  0.76409  0.33742  1.0000
  C   C11       1.0  0.26792  0.19299  0.28906  1.0000
  N   N3        1.0  0.25056  0.21114  0.29239  1.0000
  C   C12       1.0  0.20202  0.23867  0.32732  1.0000
  C   C13       1.0  0.18475  0.25854  0.32445  1.0000
  H   H3        1.0  0.15798  0.24557  0.31880  1.0000
  H   H4        1.0  0.25850  0.17152  0.24830  1.0000
  C   C14       1.0  0.18202  0.20231  0.32521  1.0000
  O   O5        1.0  0.16677  0.18930  0.25503  1.0000
  O   O6        1.0  0.16728  0.18535  0.39307  1.0000
  H   H5        1.0  0.17434  0.19264  0.44843  1.0000
  C   C15       1.0  0.31137  0.07580  0.28906  1.0000
  N   N4        1.0  0.29322  0.04029  0.29239  1.0000
  C   C16       1.0  0.26569  0.46422  0.32732  1.0000
  C   C17       1.0  0.24582  0.42708  0.32445  1.0000
  H   H6        1.0  0.25879  0.41328  0.31880  1.0000
  H   H7        1.0  0.33284  0.08785  0.24830  1.0000
  C   C18       1.0  0.30205  0.48058  0.32522  1.0000
  O   O7        1.0  0.31506  0.47834  0.25503  1.0000
  O   O8        1.0  0.31901  0.98280  0.39307  1.0000
  H   H8        1.0  0.31172  0.98257  0.44843  1.0000
  C   C19       1.0  0.42856  0.23644  0.28905  1.0000
  N   N5        1.0  0.46407  0.25380  0.29238  1.0000
  H   H9        1.0  0.09108  0.34638  0.31879  1.0000
  H   H10       1.0  0.41651  0.24586  0.24829  1.0000
  O   O9        1.0  0.52156  0.33709  0.39307  1.0000
  H   H11       1.0  0.52179  0.33003  0.44843  1.0000
  C   C20       1.0  0.18868  0.37126  0.32814  1.0000
  N   N6        1.0  0.15300  0.35390  0.32828  1.0000
  C   C21       1.0  0.13310  0.31829  0.32814  1.0000
  N   N7        1.0  0.15046  0.29997  0.32828  1.0000
  C   C22       1.0  0.18607  0.31568  0.32814  1.0000
  N   N8        1.0  0.20439  0.35136  0.32828  1.0000
  C   C23       1.0  0.31817  0.13246  0.33662  1.0000
  N   N9        1.0  0.35382  0.15091  0.33683  1.0000
  C   C24       1.0  0.37190  0.18658  0.33660  1.0000
  N   N10       1.0  0.35346  0.20379  0.33682  1.0000
  C   C25       1.0  0.31778  0.18619  0.33661  1.0000
  N   N11       1.0  0.30057  0.15054  0.33684  1.0000
  C   C26       1.0  0.29902  0.20455  0.33868  1.0000
  C   C27       1.0  0.26015  0.24017  0.34341  1.0000
  C   C28       1.0  0.29106  0.25267  0.39646  1.0000
  C   C29       1.0  0.31028  0.23474  0.39229  1.0000
  H   H12       1.0  0.33206  0.24294  0.43174  1.0000
  C   C30       1.0  0.23912  0.25656  0.33797  1.0000
  C   C31       1.0  0.20342  0.29563  0.32959  1.0000
  C   C32       1.0  0.24027  0.31183  0.33742  1.0000
  N   N12       1.0  0.25604  0.29220  0.34137  1.0000
  H   H13       1.0  0.25578  0.33845  0.34160  1.0000
  C   C33       1.0  0.30122  0.27978  0.45726  1.0000
  O   O10       1.0  0.33168  0.30393  0.45682  1.0000
  O   O11       1.0  0.28361  0.27314  0.52642  1.0000
  H   H14       1.0  0.28905  0.28786  0.57188  1.0000
  C   C34       1.0  0.29981  0.09534  0.33870  1.0000
  C   C35       1.0  0.26420  0.02086  0.34341  1.0000
  C   C36       1.0  0.25169  0.03926  0.39646  1.0000
  C   C37       1.0  0.26962  0.07641  0.39230  1.0000
  H   H15       1.0  0.26142  0.08999  0.43175  1.0000
  C   C38       1.0  0.24780  0.48342  0.33797  1.0000
  C   C39       1.0  0.20873  0.40866  0.32959  1.0000
  C   C40       1.0  0.19253  0.42930  0.33742  1.0000
  N   N13       1.0  0.21216  0.46471  0.34137  1.0000
  H   H16       1.0  0.16591  0.41819  0.34160  1.0000
  C   C41       1.0  0.22458  0.02231  0.45726  1.0000
  O   O12       1.0  0.20043  0.02862  0.45682  1.0000
  O   O13       1.0  0.23122  0.51134  0.52643  1.0000
  H   H17       1.0  0.21650  0.50206  0.57188  1.0000
  C   C42       1.0  0.40902  0.20534  0.33867  1.0000
  C   C43       1.0  0.48350  0.24421  0.34341  1.0000
  C   C44       1.0  0.46510  0.21330  0.39646  1.0000
  C   C45       1.0  0.42795  0.19408  0.39229  1.0000
  H   H18       1.0  0.41437  0.17230  0.43174  1.0000
  C   C46       1.0  0.09570  0.30094  0.32959  1.0000
  H   H19       1.0  0.08616  0.24858  0.34160  1.0000
  C   C47       1.0  0.48205  0.20314  0.45726  1.0000
  O   O14       1.0  0.47574  0.17269  0.45683  1.0000
  O   O15       1.0  0.99301  0.22076  0.52643  1.0000
  H   H20       1.0  0.00230  0.21532  0.57188  1.0000
  C   C48       1.0  0.26792  0.69299  0.28906  1.0000
  N   N14       1.0  0.25056  0.71114  0.29239  1.0000
  C   C49       1.0  0.20202  0.73867  0.32732  1.0000
  C   C50       1.0  0.18475  0.75854  0.32445  1.0000
  H   H21       1.0  0.15798  0.74557  0.31880  1.0000
  H   H22       1.0  0.25850  0.67152  0.24830  1.0000
  C   C51       1.0  0.18202  0.70231  0.32521  1.0000
  O   O16       1.0  0.16677  0.68930  0.25503  1.0000
  O   O17       1.0  0.16728  0.68535  0.39307  1.0000
  H   H23       1.0  0.17434  0.69263  0.44843  1.0000
  C   C52       1.0  0.31137  0.57580  0.28906  1.0000
  N   N15       1.0  0.29322  0.54029  0.29239  1.0000
  C   C53       1.0  0.26569  0.96422  0.32732  1.0000
  C   C54       1.0  0.24582  0.92708  0.32445  1.0000
  H   H24       1.0  0.25879  0.91328  0.31880  1.0000
  H   H25       1.0  0.33284  0.58785  0.24830  1.0000
  C   C55       1.0  0.30205  0.98058  0.32522  1.0000
  O   O18       1.0  0.31506  0.97834  0.25503  1.0000
  O   O19       1.0  0.31901  0.48280  0.39307  1.0000
  H   H26       1.0  0.31173  0.48257  0.44843  1.0000
  C   C56       1.0  0.42856  0.73644  0.28905  1.0000
  N   N16       1.0  0.46407  0.75380  0.29238  1.0000
  H   H27       1.0  0.09108  0.84638  0.31879  1.0000
  H   H28       1.0  0.41651  0.74586  0.24829  1.0000
  O   O20       1.0  0.52156  0.83708  0.39307  1.0000
  H   H29       1.0  0.52179  0.83003  0.44843  1.0000
  C   C57       1.0  0.18868  0.87126  0.32814  1.0000
  N   N17       1.0  0.15300  0.85389  0.32828  1.0000
  C   C58       1.0  0.13310  0.81829  0.32814  1.0000
  N   N18       1.0  0.15047  0.79997  0.32828  1.0000
  C   C59       1.0  0.18607  0.81568  0.32814  1.0000
  N   N19       1.0  0.20439  0.85136  0.32828  1.0000
  C   C60       1.0  0.31817  0.63246  0.33662  1.0000
  N   N20       1.0  0.35382  0.65090  0.33683  1.0000
  C   C61       1.0  0.37190  0.68658  0.33660  1.0000
  N   N21       1.0  0.35346  0.70379  0.33682  1.0000
  C   C62       1.0  0.31778  0.68620  0.33661  1.0000
  N   N22       1.0  0.30057  0.65054  0.33684  1.0000
  C   C63       1.0  0.29902  0.70455  0.33868  1.0000
  C   C64       1.0  0.26015  0.74016  0.34341  1.0000
  C   C65       1.0  0.29106  0.75267  0.39646  1.0000
  C   C66       1.0  0.31028  0.73474  0.39229  1.0000
  H   H30       1.0  0.33206  0.74294  0.43174  1.0000
  C   C67       1.0  0.23912  0.75656  0.33797  1.0000
  C   C68       1.0  0.20342  0.79563  0.32959  1.0000
  C   C69       1.0  0.24027  0.81183  0.33742  1.0000
  N   N23       1.0  0.25604  0.79220  0.34137  1.0000
  H   H31       1.0  0.25578  0.83845  0.34160  1.0000
  C   C70       1.0  0.30122  0.77978  0.45726  1.0000
  O   O21       1.0  0.33168  0.80393  0.45682  1.0000
  O   O22       1.0  0.28361  0.77314  0.52642  1.0000
  H   H32       1.0  0.28905  0.78786  0.57188  1.0000
  C   C71       1.0  0.29981  0.59534  0.33870  1.0000
  C   C72       1.0  0.26420  0.52086  0.34341  1.0000
  C   C73       1.0  0.25169  0.53926  0.39646  1.0000
  C   C74       1.0  0.26962  0.57641  0.39230  1.0000
  H   H33       1.0  0.26142  0.58999  0.43175  1.0000
  C   C75       1.0  0.24780  0.98342  0.33797  1.0000
  C   C76       1.0  0.20872  0.90866  0.32959  1.0000
  C   C77       1.0  0.19253  0.92930  0.33742  1.0000
  N   N24       1.0  0.21216  0.96471  0.34137  1.0000
  H   H34       1.0  0.16591  0.91819  0.34160  1.0000
  C   C78       1.0  0.22458  0.52231  0.45726  1.0000
  O   O23       1.0  0.20043  0.52862  0.45682  1.0000
  O   O24       1.0  0.23122  0.01134  0.52643  1.0000
  H   H35       1.0  0.21650  0.00206  0.57188  1.0000
  C   C79       1.0  0.40902  0.70534  0.33867  1.0000
  C   C80       1.0  0.48350  0.74421  0.34341  1.0000
  C   C81       1.0  0.46510  0.71330  0.39646  1.0000
  C   C82       1.0  0.42795  0.69408  0.39229  1.0000
  H   H36       1.0  0.41437  0.67230  0.43174  1.0000
  C   C83       1.0  0.09570  0.80094  0.32959  1.0000
  H   H37       1.0  0.08617  0.74858  0.34160  1.0000
  C   C84       1.0  0.48205  0.70315  0.45726  1.0000
  O   O25       1.0  0.47574  0.67268  0.45683  1.0000
  O   O26       1.0  0.99302  0.72076  0.52643  1.0000
  H   H38       1.0  0.00230  0.71532  0.57188  1.0000
  C   C85       1.0  0.76792  0.19299  0.28906  1.0000
  N   N25       1.0  0.75056  0.21114  0.29239  1.0000
  C   C86       1.0  0.70202  0.23867  0.32732  1.0000
  C   C87       1.0  0.68475  0.25854  0.32445  1.0000
  H   H39       1.0  0.65798  0.24557  0.31880  1.0000
  H   H40       1.0  0.75850  0.17152  0.24830  1.0000
  C   C88       1.0  0.68202  0.20231  0.32521  1.0000
  O   O27       1.0  0.66677  0.18930  0.25503  1.0000
  O   O28       1.0  0.66728  0.18535  0.39307  1.0000
  H   H41       1.0  0.67434  0.19264  0.44843  1.0000
  C   C89       1.0  0.81137  0.07580  0.28906  1.0000
  N   N26       1.0  0.79322  0.04029  0.29239  1.0000
  C   C90       1.0  0.76569  0.46422  0.32732  1.0000
  C   C91       1.0  0.74582  0.42708  0.32445  1.0000
  H   H42       1.0  0.75879  0.41328  0.31880  1.0000
  H   H43       1.0  0.83284  0.08785  0.24830  1.0000
  C   C92       1.0  0.80205  0.48058  0.32522  1.0000
  O   O29       1.0  0.81506  0.47834  0.25503  1.0000
  O   O30       1.0  0.81901  0.98280  0.39307  1.0000
  H   H44       1.0  0.81172  0.98257  0.44843  1.0000
  C   C93       1.0  0.92856  0.23644  0.28905  1.0000
  N   N27       1.0  0.96407  0.25380  0.29238  1.0000
  C   C94       1.0  0.54014  0.30234  0.32731  1.0000
  C   C95       1.0  0.57728  0.31961  0.32445  1.0000
  H   H45       1.0  0.59108  0.34638  0.31879  1.0000
  H   H46       1.0  0.91651  0.24586  0.24829  1.0000
  C   C96       1.0  0.52378  0.32234  0.32521  1.0000
  O   O31       1.0  0.52602  0.33759  0.25503  1.0000
  C   C97       1.0  0.68868  0.37126  0.32814  1.0000
  N   N28       1.0  0.65300  0.35390  0.32828  1.0000
  C   C98       1.0  0.63310  0.31829  0.32814  1.0000
  N   N29       1.0  0.65046  0.29997  0.32828  1.0000
  C   C99       1.0  0.68607  0.31568  0.32814  1.0000
  N   N30       1.0  0.70439  0.35136  0.32828  1.0000
  C   C100      1.0  0.81817  0.13246  0.33662  1.0000
  N   N31       1.0  0.85382  0.15091  0.33683  1.0000
  C   C101      1.0  0.87190  0.18658  0.33660  1.0000
  N   N32       1.0  0.85345  0.20379  0.33682  1.0000
  C   C102      1.0  0.81778  0.18619  0.33661  1.0000
  N   N33       1.0  0.80057  0.15054  0.33684  1.0000
  C   C103      1.0  0.79902  0.20455  0.33868  1.0000
  C   C104      1.0  0.76015  0.24017  0.34341  1.0000
  C   C105      1.0  0.79106  0.25267  0.39646  1.0000
  C   C106      1.0  0.81028  0.23474  0.39229  1.0000
  H   H47       1.0  0.83206  0.24294  0.43174  1.0000
  C   C107      1.0  0.73911  0.25656  0.33797  1.0000
  C   C108      1.0  0.70342  0.29563  0.32959  1.0000
  C   C109      1.0  0.74027  0.31183  0.33742  1.0000
  N   N34       1.0  0.75604  0.29220  0.34137  1.0000
  H   H48       1.0  0.75578  0.33845  0.34160  1.0000
  C   C110      1.0  0.80122  0.27978  0.45726  1.0000
  O   O32       1.0  0.83168  0.30393  0.45682  1.0000
  O   O33       1.0  0.78361  0.27314  0.52642  1.0000
  H   H49       1.0  0.78904  0.28786  0.57188  1.0000
  C   C111      1.0  0.79981  0.09534  0.33870  1.0000
  C   C112      1.0  0.76419  0.02086  0.34341  1.0000
  C   C113      1.0  0.75169  0.03926  0.39646  1.0000
  C   C114      1.0  0.76962  0.07641  0.39230  1.0000
  H   H50       1.0  0.76142  0.08999  0.43175  1.0000
  C   C115      1.0  0.74780  0.48342  0.33797  1.0000
  C   C116      1.0  0.70873  0.40866  0.32959  1.0000
  C   C117      1.0  0.69253  0.42930  0.33742  1.0000
  N   N35       1.0  0.71216  0.46471  0.34137  1.0000
  H   H51       1.0  0.66591  0.41819  0.34160  1.0000
  C   C118      1.0  0.72458  0.02231  0.45726  1.0000
  O   O34       1.0  0.70043  0.02862  0.45682  1.0000
  O   O35       1.0  0.73122  0.51134  0.52643  1.0000
  H   H52       1.0  0.71650  0.50206  0.57188  1.0000
  C   C119      1.0  0.90902  0.20534  0.33867  1.0000
  C   C120      1.0  0.98350  0.24421  0.34341  1.0000
  C   C121      1.0  0.96510  0.21330  0.39646  1.0000
  C   C122      1.0  0.92795  0.19408  0.39229  1.0000
  H   H53       1.0  0.91437  0.17230  0.43174  1.0000
  C   C123      1.0  0.52094  0.26525  0.33797  1.0000
  C   C124      1.0  0.59570  0.30094  0.32959  1.0000
  C   C125      1.0  0.57505  0.26409  0.33742  1.0000
  N   N36       1.0  0.53965  0.24832  0.34137  1.0000
  H   H54       1.0  0.58616  0.24858  0.34160  1.0000
  C   C126      1.0  0.98205  0.20314  0.45726  1.0000
  O   O36       1.0  0.97574  0.17269  0.45683  1.0000
  O   O37       1.0  0.49302  0.22076  0.52643  1.0000
  H   H55       1.0  0.50230  0.21532  0.57188  1.0000
  C   C127      1.0  0.76792  0.69299  0.28906  1.0000
  N   N37       1.0  0.75056  0.71114  0.29239  1.0000
  C   C128      1.0  0.70202  0.73867  0.32732  1.0000
  C   C129      1.0  0.68475  0.75854  0.32445  1.0000
  H   H56       1.0  0.65798  0.74557  0.31880  1.0000
  H   H57       1.0  0.75850  0.67152  0.24830  1.0000
  C   C130      1.0  0.68202  0.70231  0.32521  1.0000
  O   O38       1.0  0.66677  0.68930  0.25503  1.0000
  O   O39       1.0  0.66728  0.68535  0.39307  1.0000
  H   H58       1.0  0.67434  0.69263  0.44843  1.0000
  C   C131      1.0  0.81137  0.57580  0.28906  1.0000
  N   N38       1.0  0.79322  0.54029  0.29239  1.0000
  C   C132      1.0  0.76569  0.96422  0.32732  1.0000
  C   C133      1.0  0.74582  0.92708  0.32445  1.0000
  H   H59       1.0  0.75879  0.91328  0.31880  1.0000
  H   H60       1.0  0.83284  0.58785  0.24830  1.0000
  C   C134      1.0  0.80205  0.98058  0.32522  1.0000
  O   O40       1.0  0.81506  0.97834  0.25503  1.0000
  O   O41       1.0  0.81902  0.48280  0.39307  1.0000
  H   H61       1.0  0.81173  0.48257  0.44843  1.0000
  C   C135      1.0  0.92856  0.73644  0.28905  1.0000
  N   N39       1.0  0.96407  0.75380  0.29238  1.0000
  C   C136      1.0  0.54014  0.80234  0.32731  1.0000
  C   C137      1.0  0.57728  0.81961  0.32445  1.0000
  H   H62       1.0  0.59108  0.84638  0.31879  1.0000
  H   H63       1.0  0.91651  0.74586  0.24829  1.0000
  C   C138      1.0  0.52378  0.82234  0.32521  1.0000
  O   O42       1.0  0.52602  0.83759  0.25503  1.0000
  C   C139      1.0  0.68868  0.87126  0.32814  1.0000
  N   N40       1.0  0.65300  0.85389  0.32828  1.0000
  C   C140      1.0  0.63310  0.81829  0.32814  1.0000
  N   N41       1.0  0.65046  0.79997  0.32828  1.0000
  C   C141      1.0  0.68607  0.81568  0.32814  1.0000
  N   N42       1.0  0.70439  0.85136  0.32828  1.0000
  C   C142      1.0  0.81816  0.63246  0.33662  1.0000
  N   N43       1.0  0.85382  0.65090  0.33683  1.0000
  C   C143      1.0  0.87190  0.68658  0.33660  1.0000
  N   N44       1.0  0.85345  0.70379  0.33682  1.0000
  C   C144      1.0  0.81778  0.68620  0.33661  1.0000
  N   N45       1.0  0.80057  0.65054  0.33684  1.0000
  C   C145      1.0  0.79902  0.70455  0.33868  1.0000
  C   C146      1.0  0.76015  0.74016  0.34341  1.0000
  C   C147      1.0  0.79106  0.75267  0.39646  1.0000
  C   C148      1.0  0.81028  0.73474  0.39229  1.0000
  H   H64       1.0  0.83206  0.74294  0.43174  1.0000
  C   C149      1.0  0.73911  0.75656  0.33797  1.0000
  C   C150      1.0  0.70342  0.79563  0.32959  1.0000
  C   C151      1.0  0.74027  0.81183  0.33742  1.0000
  N   N46       1.0  0.75604  0.79220  0.34137  1.0000
  H   H65       1.0  0.75578  0.83845  0.34160  1.0000
  C   C152      1.0  0.80122  0.77978  0.45726  1.0000
  O   O43       1.0  0.83168  0.80393  0.45682  1.0000
  O   O44       1.0  0.78361  0.77314  0.52642  1.0000
  H   H66       1.0  0.78905  0.78786  0.57188  1.0000
  C   C153      1.0  0.79981  0.59534  0.33870  1.0000
  C   C154      1.0  0.76419  0.52086  0.34341  1.0000
  C   C155      1.0  0.75169  0.53926  0.39646  1.0000
  C   C156      1.0  0.76962  0.57641  0.39230  1.0000
  H   H67       1.0  0.76142  0.58999  0.43175  1.0000
  C   C157      1.0  0.74780  0.98342  0.33797  1.0000
  C   C158      1.0  0.70873  0.90866  0.32959  1.0000
  C   C159      1.0  0.69253  0.92930  0.33742  1.0000
  N   N47       1.0  0.71216  0.96471  0.34137  1.0000
  H   H68       1.0  0.66591  0.91819  0.34160  1.0000
  C   C160      1.0  0.72458  0.52231  0.45726  1.0000
  O   O45       1.0  0.70043  0.52862  0.45682  1.0000
  O   O46       1.0  0.73122  0.01134  0.52643  1.0000
  H   H69       1.0  0.71650  0.00206  0.57188  1.0000
  C   C161      1.0  0.90902  0.70534  0.33867  1.0000
  C   C162      1.0  0.98350  0.74421  0.34341  1.0000
  C   C163      1.0  0.96510  0.71330  0.39646  1.0000
  C   C164      1.0  0.92795  0.69408  0.39229  1.0000
  H   H70       1.0  0.91437  0.67230  0.43174  1.0000
  C   C165      1.0  0.52094  0.76524  0.33797  1.0000
  C   C166      1.0  0.59570  0.80094  0.32959  1.0000
  C   C167      1.0  0.57506  0.76409  0.33742  1.0000
  N   N48       1.0  0.53965  0.74832  0.34137  1.0000
  H   H71       1.0  0.58616  0.74858  0.34160  1.0000
  C   C168      1.0  0.98205  0.70315  0.45726  1.0000
  O   O47       1.0  0.97574  0.67268  0.45683  1.0000
  O   O48       1.0  0.49302  0.72076  0.52643  1.0000
  H   H72       1.0  0.50230  0.71532  0.57188  1.0000
