data_image0
_chemical_formula_structural       C2NCHCHCH3C2HC3NOCHC4NC2NHOCHC4NC2NHOCHC2H2CH2C2H2CH2C2H2CHC2H2CH2C2H2CH2C2H2CH2C3HC6H3C6H3C6H3C6H3C6H3CH3C2H4C2H4C4NC2NHOHC4NC2NHOHC4NC2NHOC4NC2NHOHC4NC2NHOHC4NC2NHOH
_chemical_formula_sum              "C117 N18 H72 O9"
_cell_length_a       30.7327
_cell_length_b       30.7327
_cell_length_c       14.8195
_cell_angle_alpha    90
_cell_angle_beta     90
_cell_angle_gamma    120

_space_group_name_H-M_alt    "P 1"
_space_group_IT_number       1

loop_
  _space_group_symop_operation_xyz
  'x, y, z'

loop_
  _atom_site_type_symbol
  _atom_site_label
  _atom_site_symmetry_multiplicity
  _atom_site_fract_x
  _atom_site_fract_y
  _atom_site_fract_z
  _atom_site_occupancy
  C   C1        1.0  0.03597  0.53618  0.29923  1.0000
  C   C2        1.0  0.06376  0.53221  0.37223  1.0000
  N   N1        1.0  0.05973  0.56489  0.22563  1.0000
  C   C3        1.0  0.03538  0.56892  0.15273  1.0000
  H   H1        1.0  0.05529  0.59096  0.09935  1.0000
  C   C4        1.0  0.03583  0.49855  0.44261  1.0000
  H   H2        1.0  0.05429  0.49390  0.49599  1.0000
  C   C5        1.0  0.11800  0.55928  0.37209  1.0000
  H   H3        1.0  0.12609  0.63213  0.36884  1.0000
  H   H4        1.0  0.12640  0.49472  0.36941  1.0000
  H   H5        1.0  0.17859  0.67587  0.08018  1.0000
  C   C6        1.0  0.14514  0.61272  0.36553  1.0000
  C   C7        1.0  0.14537  0.53319  0.36693  1.0000
  H   H6        1.0  0.18848  0.65126  0.64609  1.0000
  C   C8        1.0  0.95459  0.47706  0.37193  1.0000
  C   C9        1.0  0.98229  0.50893  0.29897  1.0000
  C   C10       1.0  0.98262  0.54128  0.15135  1.0000
  N   N2        1.0  0.95846  0.51296  0.22461  1.0000
  O   O1        1.0  0.95598  0.54363  0.07959  1.0000
  C   C11       1.0  0.94215  0.50328  0.01639  1.0000
  H   H7        1.0  0.91793  0.46671  0.04765  1.0000
  C   C12       1.0  0.53806  0.48051  0.37202  1.0000
  C   C13       1.0  0.50620  0.47634  0.29904  1.0000
  C   C14       1.0  0.47897  0.50279  0.29928  1.0000
  C   C15       1.0  0.48294  0.53456  0.37227  1.0000
  N   N3        1.0  0.45027  0.49785  0.22565  1.0000
  C   C16       1.0  0.44626  0.46948  0.15274  1.0000
  C   C17       1.0  0.47388  0.44434  0.15139  1.0000
  N   N4        1.0  0.50219  0.44849  0.22468  1.0000
  H   H8        1.0  0.42422  0.46735  0.09936  1.0000
  O   O2        1.0  0.47155  0.41536  0.07964  1.0000
  C   C18       1.0  0.51193  0.44188  0.01649  1.0000
  H   H9        1.0  0.54848  0.45419  0.04780  1.0000
  C   C19       1.0  0.53469  0.06059  0.37202  1.0000
  C   C20       1.0  0.53890  0.03291  0.29906  1.0000
  C   C21       1.0  0.51249  0.97924  0.29927  1.0000
  C   C22       1.0  0.48072  0.95141  0.37225  1.0000
  N   N5        1.0  0.51747  0.95550  0.22565  1.0000
  C   C23       1.0  0.54584  0.97988  0.15276  1.0000
  C   C24       1.0  0.57095  0.03264  0.15143  1.0000
  N   N6        1.0  0.56676  0.05678  0.22472  1.0000
  H   H10       1.0  0.54803  0.95999  0.09940  1.0000
  O   O3        1.0  0.59996  0.05931  0.07972  1.0000
  C   C25       1.0  0.57344  0.07311  0.01646  1.0000
  H   H11       1.0  0.56105  0.09730  0.04769  1.0000
  C   C26       1.0  0.25843  0.54940  0.25640  1.0000
  C   C27       1.0  0.30463  0.55061  0.25662  1.0000
  H   H12       1.0  0.32820  0.56749  0.20300  1.0000
  H   H13       1.0  0.25074  0.56520  0.20215  1.0000
  C   C28       1.0  0.33017  0.51960  0.01937  1.0000
  H   H14       1.0  0.33971  0.50580  0.07967  1.0000
  H   H15       1.0  0.31680  0.54497  0.04039  1.0000
  C   C29       1.0  0.46591  0.71211  0.25642  1.0000
  C   C30       1.0  0.46472  0.75712  0.25669  1.0000
  H   H16       1.0  0.44787  0.76385  0.20305  1.0000
  H   H17       1.0  0.45013  0.68865  0.20211  1.0000
  C   C31       1.0  0.49571  0.81355  0.01947  1.0000
  H   H18       1.0  0.50950  0.83686  0.07981  1.0000
  H   H19       1.0  0.47032  0.77480  0.04043  1.0000
  C   C32       1.0  0.30309  0.75668  0.25665  1.0000
  C   C33       1.0  0.25806  0.71049  0.25709  1.0000
  H   H20       1.0  0.25131  0.68694  0.20340  1.0000
  H   H21       1.0  0.32650  0.76429  0.20229  1.0000
  C   C34       1.0  0.20188  0.68535  0.01983  1.0000
  H   H22       1.0  0.24063  0.69868  0.04076  1.0000
  C   C35       1.0  0.76087  0.46215  0.25839  1.0000
  C   C36       1.0  0.71543  0.46252  0.25883  1.0000
  H   H23       1.0  0.69176  0.44623  0.20511  1.0000
  H   H24       1.0  0.76813  0.44623  0.20379  1.0000
  C   C37       1.0  0.68992  0.49156  0.02140  1.0000
  H   H25       1.0  0.68085  0.50518  0.08245  1.0000
  H   H26       1.0  0.70154  0.46459  0.04095  1.0000
  C   C38       1.0  0.55289  0.30163  0.25801  1.0000
  C   C39       1.0  0.55247  0.25580  0.25879  1.0000
  H   H27       1.0  0.56876  0.24830  0.20522  1.0000
  H   H28       1.0  0.56901  0.32477  0.20345  1.0000
  C   C40       1.0  0.52366  0.20158  0.02126  1.0000
  H   H29       1.0  0.51003  0.17892  0.08235  1.0000
  H   H30       1.0  0.55081  0.24013  0.04071  1.0000
  C   C41       1.0  0.71334  0.25444  0.25858  1.0000
  C   C42       1.0  0.75916  0.29986  0.25923  1.0000
  H   H31       1.0  0.76662  0.32365  0.20566  1.0000
  H   H32       1.0  0.69014  0.24737  0.20407  1.0000
  C   C43       1.0  0.81355  0.32494  0.02188  1.0000
  H   H33       1.0  0.83626  0.33398  0.08291  1.0000
  H   H34       1.0  0.77496  0.31327  0.04149  1.0000
  C   C44       1.0  0.19739  0.55865  0.34617  1.0000
  C   C45       1.0  0.22174  0.61141  0.33612  1.0000
  C   C46       1.0  0.19720  0.63962  0.34573  1.0000
  H   H35       1.0  0.25996  0.63063  0.32625  1.0000
  C   C47       1.0  0.45663  0.64182  0.34585  1.0000
  C   C48       1.0  0.40387  0.61342  0.33566  1.0000
  C   C49       1.0  0.37562  0.56068  0.34544  1.0000
  C   C50       1.0  0.40246  0.53550  0.36555  1.0000
  C   C51       1.0  0.45590  0.56176  0.37206  1.0000
  C   C52       1.0  0.48203  0.61522  0.36687  1.0000
  H   H36       1.0  0.38304  0.49704  0.36866  1.0000
  H   H37       1.0  0.52049  0.63469  0.36949  1.0000
  H   H38       1.0  0.38469  0.63244  0.32565  1.0000
  C   C53       1.0  0.37350  0.81781  0.34590  1.0000
  C   C54       1.0  0.40192  0.79349  0.33556  1.0000
  C   C55       1.0  0.45466  0.81800  0.34532  1.0000
  C   C56       1.0  0.47982  0.87002  0.36546  1.0000
  C   C57       1.0  0.45352  0.89717  0.37199  1.0000
  C   C58       1.0  0.40007  0.86981  0.36689  1.0000
  H   H39       1.0  0.51828  0.88907  0.36862  1.0000
  H   H40       1.0  0.38057  0.88878  0.36957  1.0000
  H   H41       1.0  0.38291  0.75527  0.32571  1.0000
  C   C59       1.0  0.82135  0.45157  0.34694  1.0000
  C   C60       1.0  0.79637  0.39875  0.33841  1.0000
  C   C61       1.0  0.82044  0.37009  0.34855  1.0000
  C   C62       1.0  0.87264  0.39649  0.36807  1.0000
  C   C63       1.0  0.90035  0.44999  0.37219  1.0000
  C   C64       1.0  0.87349  0.47655  0.36573  1.0000
  H   H42       1.0  0.89138  0.37677  0.37067  1.0000
  H   H43       1.0  0.89274  0.51503  0.36834  1.0000
  H   H44       1.0  0.75810  0.37996  0.32918  1.0000
  C   C65       1.0  0.56364  0.37285  0.34664  1.0000
  C   C66       1.0  0.61643  0.40072  0.33772  1.0000
  C   C67       1.0  0.64508  0.45345  0.34815  1.0000
  C   C68       1.0  0.61867  0.47920  0.36798  1.0000
  C   C69       1.0  0.56519  0.45340  0.37223  1.0000
  C   C70       1.0  0.53865  0.39997  0.36573  1.0000
  H   H45       1.0  0.63838  0.51765  0.37067  1.0000
  H   H46       1.0  0.50017  0.38071  0.36845  1.0000
  H   H47       1.0  0.63523  0.38128  0.32824  1.0000
  C   C71       1.0  0.64227  0.19391  0.34704  1.0000
  C   C72       1.0  0.61435  0.21881  0.33835  1.0000
  C   C73       1.0  0.56161  0.19464  0.34843  1.0000
  C   C74       1.0  0.53588  0.14244  0.36781  1.0000
  C   C75       1.0  0.56174  0.11482  0.37225  1.0000
  C   C76       1.0  0.61518  0.14178  0.36592  1.0000
  H   H48       1.0  0.49741  0.12362  0.37045  1.0000
  H   H49       1.0  0.63447  0.12259  0.36867  1.0000
  H   H50       1.0  0.63377  0.25707  0.32902  1.0000
  C   C77       1.0  0.98264  0.47174  0.44252  1.0000
  H   H51       1.0  0.96426  0.44855  0.49585  1.0000
  H   H52       1.0  0.92133  0.50800  0.62802  1.0000
  H   H53       1.0  0.97529  0.50400  0.65446  1.0000
  C   C78       1.0  0.51658  0.54027  0.44266  1.0000
  C   C79       1.0  0.54339  0.51389  0.44259  1.0000
  H   H54       1.0  0.56660  0.51873  0.49590  1.0000
  H   H55       1.0  0.52125  0.56341  0.49602  1.0000
  H   H56       1.0  0.50722  0.41634  0.62812  1.0000
  H   H57       1.0  0.51124  0.47431  0.65456  1.0000
  C   C80       1.0  0.47497  0.97932  0.44265  1.0000
  C   C81       1.0  0.50131  0.03250  0.44259  1.0000
  H   H58       1.0  0.49643  0.05086  0.49588  1.0000
  H   H59       1.0  0.45181  0.96083  0.49597  1.0000
  H   H60       1.0  0.59901  0.09397  0.62814  1.0000
  H   H61       1.0  0.54106  0.03996  0.65448  1.0000
  C   C82       1.0  0.32259  0.53740  0.33384  1.0000
  C   C83       1.0  0.28930  0.51785  0.40852  1.0000
  C   C84       1.0  0.24233  0.51725  0.40882  1.0000
  C   C85       1.0  0.22745  0.53574  0.33406  1.0000
  N   N7        1.0  0.21518  0.50380  0.48668  1.0000
  C   C86       1.0  0.22952  0.48960  0.56239  1.0000
  C   C87       1.0  0.27574  0.49059  0.56258  1.0000
  N   N8        1.0  0.30379  0.50501  0.48609  1.0000
  H   H62       1.0  0.20751  0.47964  0.61886  1.0000
  O   O4        1.0  0.29199  0.47712  0.63760  1.0000
  H   H63       1.0  0.36424  0.54035  0.64559  1.0000
  C   C88       1.0  0.47800  0.78828  0.33397  1.0000
  C   C89       1.0  0.49752  0.77452  0.40864  1.0000
  C   C90       1.0  0.49810  0.72816  0.40887  1.0000
  C   C91       1.0  0.47961  0.69482  0.33409  1.0000
  N   N9        1.0  0.51154  0.71440  0.48668  1.0000
  C   C92       1.0  0.52577  0.74295  0.56241  1.0000
  C   C93       1.0  0.52476  0.78817  0.56266  1.0000
  N   N10       1.0  0.51035  0.80183  0.48621  1.0000
  H   H64       1.0  0.53565  0.73084  0.61890  1.0000
  O   O5        1.0  0.53821  0.81785  0.63774  1.0000
  H   H65       1.0  0.47500  0.82691  0.64570  1.0000
  C   C94       1.0  0.22686  0.69267  0.33434  1.0000
  C   C95       1.0  0.24077  0.72603  0.40889  1.0000
  C   C96       1.0  0.28718  0.77295  0.40902  1.0000
  C   C97       1.0  0.32050  0.78776  0.33421  1.0000
  N   N11       1.0  0.30100  0.80017  0.48680  1.0000
  C   C98       1.0  0.27251  0.78592  0.56260  1.0000
  C   C99       1.0  0.22726  0.73972  0.56295  1.0000
  N   N12       1.0  0.21352  0.71162  0.48653  1.0000
  H   H66       1.0  0.28466  0.80795  0.61903  1.0000
  O   O6        1.0  0.19761  0.72356  0.63808  1.0000
  C   C100      1.0  0.69808  0.47607  0.33648  1.0000
  C   C101      1.0  0.73133  0.49445  0.41136  1.0000
  C   C102      1.0  0.77771  0.49390  0.41107  1.0000
  C   C103      1.0  0.79200  0.47526  0.33573  1.0000
  N   N13       1.0  0.80489  0.50636  0.48886  1.0000
  C   C104      1.0  0.79105  0.52055  0.56520  1.0000
  C   C105      1.0  0.74535  0.52060  0.56602  1.0000
  N   N14       1.0  0.71730  0.50723  0.48950  1.0000
  H   H67       1.0  0.81302  0.52969  0.62163  1.0000
  O   O7        1.0  0.72959  0.53396  0.64182  1.0000
  H   H68       1.0  0.65600  0.47267  0.64669  1.0000
  C   C106      1.0  0.53890  0.22490  0.33652  1.0000
  C   C107      1.0  0.52069  0.24005  0.41129  1.0000
  C   C108      1.0  0.52131  0.28702  0.41086  1.0000
  C   C109      1.0  0.54001  0.31981  0.33534  1.0000
  N   N15       1.0  0.50897  0.30185  0.48867  1.0000
  C   C110      1.0  0.49480  0.27392  0.56510  1.0000
  C   C111      1.0  0.49466  0.22812  0.56604  1.0000
  N   N16       1.0  0.50792  0.21333  0.48953  1.0000
  H   H69       1.0  0.48575  0.28684  0.62151  1.0000
  O   O8        1.0  0.48130  0.19907  0.64191  1.0000
  H   H70       1.0  0.54234  0.18637  0.64644  1.0000
  C   C112      1.0  0.79008  0.31709  0.33695  1.0000
  C   C113      1.0  0.77511  0.28379  0.41173  1.0000
  C   C114      1.0  0.72816  0.23743  0.41136  1.0000
  C   C115      1.0  0.69533  0.22336  0.33596  1.0000
  N   N17       1.0  0.71341  0.21020  0.48910  1.0000
  C   C116      1.0  0.74145  0.22395  0.56541  1.0000
  C   C117      1.0  0.78721  0.26964  0.56633  1.0000
  N   N18       1.0  0.80193  0.29774  0.48987  1.0000
  H   H71       1.0  0.72856  0.20200  0.62186  1.0000
  O   O9        1.0  0.81632  0.28534  0.64214  1.0000
  H   H72       1.0  0.82854  0.35890  0.64728  1.0000
