data_image0
_chemical_formula_structural       C2NCHC2NCHC2NCHCNHCNHCNHC2NCHC2NCHC2NCHC2NCHC2NCHC2NCHCNHCNHCNHCNHCNHCNHC2NCHC2NCHC2NCHC2NCHC2NCHC2NCHCNCNCNCNCNCNCNCNCNCNCNCNCNCNCNCNCNCNCNCNCNCNCNCNCNCNCNCNCNCNCNCNCNCNCNCNCNCNCNCNCNCNCNCNCNCNCNCNCNHCNHCNHC2NCHC2NCHC2NCHCNHCNHCNHCNHCNHCNHC2NCHC2NCHC2NCHC2NCHC2NCHC2NCHCNHCNHCNHCNHCNHCNH
_chemical_formula_sum              "C144 N96 H48"
_cell_length_a       41.3615
_cell_length_b       41.3615
_cell_length_c       14.86
_cell_angle_alpha    90
_cell_angle_beta     90
_cell_angle_gamma    120

_space_group_name_H-M_alt    "P 1"
_space_group_IT_number       1

loop_
  _space_group_symop_operation_xyz
  'x, y, z'

loop_
  _atom_site_type_symbol
  _atom_site_label
  _atom_site_symmetry_multiplicity
  _atom_site_fract_x
  _atom_site_fract_y
  _atom_site_fract_z
  _atom_site_occupancy
  C   C1        1.0  0.00892  0.07461  0.33636  1.0000
  C   C2        1.0  0.97581  0.07681  0.33425  1.0000
  N   N1        1.0  0.97787  0.11079  0.33380  1.0000
  C   C3        1.0  0.01029  0.14434  0.33500  1.0000
  H   H1        1.0  0.95009  0.05329  0.33335  1.0000
  C   C4        1.0  0.94121  0.93786  0.33792  1.0000
  C   C5        1.0  0.90559  0.93500  0.33673  1.0000
  N   N2        1.0  0.87397  0.90073  0.33723  1.0000
  C   C6        1.0  0.87352  0.86750  0.33845  1.0000
  H   H2        1.0  0.90294  0.95826  0.33595  1.0000
  C   C7        1.0  0.07793  0.00651  0.34421  1.0000
  C   C8        1.0  0.11364  0.03915  0.34492  1.0000
  N   N3        1.0  0.14514  0.03625  0.34708  1.0000
  C   C9        1.0  0.14544  0.00338  0.34887  1.0000
  H   H3        1.0  0.11641  0.06506  0.34363  1.0000
  C   C10       1.0  0.13895  0.32724  0.33530  1.0000
  N   N4        1.0  0.10900  0.29163  0.33485  1.0000
  H   H4        1.0  0.16531  0.33110  0.33130  1.0000
  C   C11       1.0  0.69003  0.81465  0.33754  1.0000
  N   N5        1.0  0.72571  0.82050  0.33798  1.0000
  H   H5        1.0  0.68602  0.83698  0.33107  1.0000
  C   C12       1.0  0.26504  0.91831  0.34810  1.0000
  N   N6        1.0  0.25411  0.94410  0.34759  1.0000
  H   H6        1.0  0.29295  0.92743  0.34390  1.0000
  C   C13       1.0  0.28464  0.06756  0.35049  1.0000
  C   C14       1.0  0.31621  0.06253  0.35255  1.0000
  N   N7        1.0  0.35116  0.09232  0.34989  1.0000
  C   C15       1.0  0.35925  0.12838  0.34581  1.0000
  H   H7        1.0  0.31383  0.03676  0.35533  1.0000
  C   C16       1.0  0.79999  0.72841  0.34402  1.0000
  C   C17       1.0  0.82700  0.71723  0.33448  1.0000
  N   N8        1.0  0.81568  0.67992  0.33262  1.0000
  C   C18       1.0  0.77933  0.65186  0.34045  1.0000
  H   H8        1.0  0.85462  0.73652  0.32701  1.0000
  C   C19       1.0  0.94178  0.21481  0.33542  1.0000
  C   C20       1.0  0.90372  0.18688  0.32913  1.0000
  N   N9        1.0  0.87676  0.19699  0.32829  1.0000
  C   C21       1.0  0.88389  0.23304  0.33359  1.0000
  H   H9        1.0  0.89612  0.15934  0.32439  1.0000
  C   C22       1.0  0.26354  0.46236  0.33383  1.0000
  C   C23       1.0  0.28210  0.44174  0.32796  1.0000
  N   N10       1.0  0.31996  0.46065  0.32699  1.0000
  C   C24       1.0  0.34168  0.49866  0.32953  1.0000
  H   H10       1.0  0.26791  0.41323  0.32650  1.0000
  C   C25       1.0  0.55494  0.80360  0.33590  1.0000
  C   C26       1.0  0.57520  0.84274  0.32839  1.0000
  N   N11       1.0  0.55585  0.86121  0.32397  1.0000
  C   C27       1.0  0.51779  0.84437  0.32565  1.0000
  H   H11       1.0  0.60370  0.85731  0.32647  1.0000
  C   C28       1.0  0.21161  0.74958  0.37355  1.0000
  C   C29       1.0  0.22623  0.72495  0.37055  1.0000
  N   N12       1.0  0.20283  0.68764  0.37002  1.0000
  C   C30       1.0  0.16527  0.67195  0.37449  1.0000
  H   H12       1.0  0.25416  0.73426  0.36575  1.0000
  C   C31       1.0  0.51896  0.31862  0.32047  1.0000
  N   N13       1.0  0.50008  0.28086  0.31956  1.0000
  H   H13       1.0  0.54742  0.33269  0.31578  1.0000
  C   C32       1.0  0.80802  0.49127  0.32969  1.0000
  N   N14       1.0  0.78945  0.51034  0.32310  1.0000
  H   H14       1.0  0.79402  0.46303  0.32011  1.0000
  C   C33       1.0  0.69835  0.14725  0.30457  1.0000
  N   N15       1.0  0.73600  0.16971  0.30860  1.0000
  H   H15       1.0  0.68784  0.11963  0.29008  1.0000
  C   C34       1.0  0.11840  0.50503  0.34183  1.0000
  N   N16       1.0  0.12982  0.47955  0.34234  1.0000
  H   H16       1.0  0.09053  0.49540  0.33370  1.0000
  C   C35       1.0  0.51050  0.61542  0.33878  1.0000
  N   N17       1.0  0.53661  0.65218  0.34094  1.0000
  H   H17       1.0  0.51956  0.59658  0.33522  1.0000
  C   C36       1.0  0.39823  0.89221  0.31302  1.0000
  N   N18       1.0  0.36174  0.88162  0.32334  1.0000
  H   H18       1.0  0.41635  0.91950  0.29746  1.0000
  C   C37       1.0  0.49071  0.16283  0.33845  1.0000
  C   C38       1.0  0.52904  0.18946  0.32541  1.0000
  N   N19       1.0  0.55502  0.17849  0.32804  1.0000
  C   C39       1.0  0.54628  0.14268  0.34388  1.0000
  H   H19       1.0  0.53784  0.21691  0.31287  1.0000
  C   C40       1.0  0.68118  0.52099  0.32864  1.0000
  C   C41       1.0  0.66915  0.48251  0.31782  1.0000
  N   N20       1.0  0.63229  0.45679  0.32483  1.0000
  C   C42       1.0  0.60568  0.46604  0.34191  1.0000
  H   H20       1.0  0.68754  0.47335  0.30551  1.0000
  C   C43       1.0  0.85000  0.33027  0.33658  1.0000
  C   C44       1.0  0.82295  0.34179  0.33224  1.0000
  N   N21       1.0  0.83393  0.37861  0.33726  1.0000
  C   C45       1.0  0.87016  0.40563  0.34683  1.0000
  H   H21       1.0  0.79514  0.32312  0.32494  1.0000
  C   C46       1.0  0.04514  0.56665  0.32390  1.0000
  C   C47       1.0  0.02404  0.53141  0.28284  1.0000
  N   N22       1.0  0.98679  0.51372  0.29152  1.0000
  C   C48       1.0  0.96850  0.52897  0.33358  1.0000
  H   H22       1.0  0.03592  0.51761  0.25292  1.0000
  C   C49       1.0  0.44501  0.48036  0.37431  1.0000
  C   C50       1.0  0.42878  0.44334  0.34261  1.0000
  N   N23       1.0  0.44930  0.42611  0.34775  1.0000
  C   C51       1.0  0.48339  0.44202  0.38804  1.0000
  H   H23       1.0  0.40421  0.43096  0.30770  1.0000
  C   C52       1.0  0.53225  0.96547  0.34596  1.0000
  C   C53       1.0  0.56980  0.98701  0.31866  1.0000
  N   N24       1.0  0.58607  0.02469  0.32364  1.0000
  C   C54       1.0  0.56833  0.04208  0.35856  1.0000
  H   H24       1.0  0.58366  0.97526  0.28854  1.0000
  C   C55       1.0  0.97595  0.97273  0.33839  1.0000
  N   N25       1.0  0.00965  0.97403  0.34076  1.0000
  C   C56       1.0  0.04319  0.00668  0.34164  1.0000
  N   N26       1.0  0.04189  0.03911  0.34004  1.0000
  C   C57       1.0  0.00927  0.03998  0.33765  1.0000
  N   N27       1.0  0.97694  0.00625  0.33695  1.0000
  C   C58       1.0  0.97399  0.21032  0.33563  1.0000
  N   N28       1.0  0.97595  0.17828  0.33454  1.0000
  C   C59       1.0  0.00948  0.17875  0.33514  1.0000
  N   N29       1.0  0.04174  0.21302  0.33676  1.0000
  C   C60       1.0  0.04137  0.24591  0.33795  1.0000
  N   N30       1.0  0.00714  0.24250  0.33728  1.0000
  C   C61       1.0  0.80581  0.76555  0.34329  1.0000
  N   N31       1.0  0.83830  0.79905  0.34063  1.0000
  C   C62       1.0  0.83879  0.83259  0.33983  1.0000
  N   N32       1.0  0.80493  0.83155  0.34139  1.0000
  C   C63       1.0  0.77156  0.79869  0.34411  1.0000
  N   N33       1.0  0.77424  0.76751  0.34480  1.0000
  C   C64       1.0  0.24731  0.03599  0.35127  1.0000
  N   N34       1.0  0.21400  0.03561  0.35021  1.0000
  C   C65       1.0  0.18005  0.00291  0.35057  1.0000
  N   N35       1.0  0.18042  0.96979  0.35176  1.0000
  C   C66       1.0  0.21284  0.96858  0.35249  1.0000
  N   N36       1.0  0.24458  0.00206  0.35220  1.0000
  C   C67       1.0  0.22436  0.44627  0.33845  1.0000
  N   N37       1.0  0.19853  0.40902  0.33733  1.0000
  C   C68       1.0  0.16110  0.39675  0.34172  1.0000
  N   N38       1.0  0.15046  0.42319  0.34702  1.0000
  C   C69       1.0  0.17552  0.46047  0.34903  1.0000
  N   N39       1.0  0.21189  0.47075  0.34440  1.0000
  C   C70       1.0  0.57122  0.78074  0.34038  1.0000
  N   N40       1.0  0.60843  0.79220  0.34069  1.0000
  C   C71       1.0  0.62058  0.76695  0.34393  1.0000
  N   N41       1.0  0.59413  0.72974  0.34605  1.0000
  C   C72       1.0  0.55681  0.71749  0.34573  1.0000
  N   N42       1.0  0.54678  0.74375  0.34281  1.0000
  C   C73       1.0  0.23476  0.78883  0.36818  1.0000
  N   N43       1.0  0.22336  0.81472  0.36578  1.0000
  C   C74       1.0  0.24858  0.85208  0.35736  1.0000
  N   N44       1.0  0.28556  0.86244  0.35065  1.0000
  C   C75       1.0  0.29777  0.83744  0.35302  1.0000
  N   N45       1.0  0.27165  0.80137  0.36160  1.0000
  C   C76       1.0  0.44657  0.21993  0.33061  1.0000
  N   N46       1.0  0.40949  0.19387  0.33617  1.0000
  C   C77       1.0  0.39776  0.15659  0.34170  1.0000
  N   N47       1.0  0.42458  0.14635  0.34233  1.0000
  C   C78       1.0  0.46176  0.17167  0.33696  1.0000
  N   N48       1.0  0.47144  0.20785  0.33130  1.0000
  C   C79       1.0  0.78225  0.56403  0.32934  1.0000
  N   N49       1.0  0.79357  0.60117  0.33441  1.0000
  C   C80       1.0  0.76822  0.61319  0.33561  1.0000
  N   N50       1.0  0.73114  0.58663  0.33285  1.0000
  C   C81       1.0  0.71905  0.54947  0.32732  1.0000
  N   N51       1.0  0.74528  0.53938  0.32619  1.0000
  C   C82       1.0  0.79199  0.22931  0.32956  1.0000
  N   N52       1.0  0.81791  0.21787  0.32947  1.0000
  C   C83       1.0  0.85545  0.24324  0.33202  1.0000
  N   N53       1.0  0.86588  0.28032  0.33410  1.0000
  C   C84       1.0  0.84093  0.29254  0.33312  1.0000
  N   N54       1.0  0.80475  0.26632  0.33102  1.0000
  C   C85       1.0  0.13433  0.57148  0.35148  1.0000
  N   N55       1.0  0.15716  0.60897  0.36508  1.0000
  C   C86       1.0  0.14313  0.63287  0.36568  1.0000
  N   N56       1.0  0.10613  0.61877  0.35125  1.0000
  C   C87       1.0  0.08341  0.58221  0.33510  1.0000
  N   N57       1.0  0.09793  0.55948  0.33660  1.0000
  C   C88       1.0  0.44339  0.56612  0.34183  1.0000
  N   N58       1.0  0.40587  0.55276  0.33276  1.0000
  C   C89       1.0  0.38087  0.51511  0.33423  1.0000
  N   N59       1.0  0.39392  0.49120  0.34687  1.0000
  C   C90       1.0  0.43058  0.50379  0.35831  1.0000
  N   N60       1.0  0.45445  0.54087  0.35540  1.0000
  C   C91       1.0  0.44847  0.87609  0.32330  1.0000
  N   N61       1.0  0.46276  0.85260  0.32214  1.0000
  C   C92       1.0  0.50062  0.86641  0.32390  1.0000
  N   N62       1.0  0.52383  0.90383  0.32973  1.0000
  C   C93       1.0  0.51017  0.92726  0.33337  1.0000
  N   N63       1.0  0.47296  0.91289  0.33028  1.0000
  C   C94       1.0  0.57426  0.13227  0.34291  1.0000
  N   N64       1.0  0.61190  0.15506  0.33096  1.0000
  C   C95       1.0  0.63548  0.14064  0.32740  1.0000
  N   N65       1.0  0.62096  0.10336  0.33728  1.0000
  C   C96       1.0  0.58424  0.08057  0.35121  1.0000
  N   N66       1.0  0.56192  0.09555  0.35269  1.0000
  C   C97       1.0  0.56760  0.43803  0.34892  1.0000
  N   N67       1.0  0.55321  0.40058  0.33610  1.0000
  C   C98       1.0  0.51551  0.37619  0.34161  1.0000
  N   N68       1.0  0.49248  0.38986  0.36016  1.0000
  C   C99       1.0  0.50616  0.42651  0.37559  1.0000
  N   N69       1.0  0.54324  0.44968  0.36841  1.0000
  C   C100      1.0  0.88004  0.44368  0.34902  1.0000
  N   N70       1.0  0.85593  0.45724  0.35080  1.0000
  C   C101      1.0  0.86902  0.49495  0.35169  1.0000
  N   N71       1.0  0.90636  0.51880  0.34837  1.0000
  C   C102      1.0  0.93038  0.50590  0.34457  1.0000
  N   N72       1.0  0.91679  0.46878  0.34473  1.0000
  C   C103      1.0  0.04341  0.14217  0.33684  1.0000
  N   N73       1.0  0.04137  0.10815  0.33752  1.0000
  H   H25       1.0  0.06910  0.16572  0.33800  1.0000
  C   C104      1.0  0.90915  0.87038  0.33923  1.0000
  N   N74       1.0  0.94076  0.90465  0.33909  1.0000
  H   H26       1.0  0.91183  0.84713  0.34040  1.0000
  C   C105      1.0  0.10971  0.97075  0.34838  1.0000
  N   N75       1.0  0.07823  0.97365  0.34606  1.0000
  H   H27       1.0  0.10686  0.94481  0.34952  1.0000
  C   C106      1.0  0.07266  0.28334  0.33974  1.0000
  C   C107      1.0  0.06727  0.31460  0.34577  1.0000
  N   N76       1.0  0.09690  0.34967  0.34597  1.0000
  C   C108      1.0  0.13306  0.35814  0.34085  1.0000
  H   H28       1.0  0.04137  0.31187  0.34997  1.0000
  C   C109      1.0  0.73413  0.79262  0.34577  1.0000
  C   C110      1.0  0.70291  0.75598  0.35402  1.0000
  N   N77       1.0  0.66779  0.75032  0.35285  1.0000
  C   C111      1.0  0.65923  0.77783  0.34469  1.0000
  H   H29       1.0  0.70563  0.73288  0.36049  1.0000
  C   C112      1.0  0.21822  0.93691  0.35298  1.0000
  C   C113      1.0  0.19079  0.89870  0.35936  1.0000
  N   N78       1.0  0.20160  0.87228  0.36055  1.0000
  C   C114      1.0  0.23788  0.88010  0.35523  1.0000
  H   H30       1.0  0.16313  0.89059  0.36408  1.0000
  C   C115      1.0  0.32808  0.13395  0.34450  1.0000
  N   N79       1.0  0.29258  0.10381  0.34662  1.0000
  H   H31       1.0  0.33165  0.16020  0.34121  1.0000
  C   C116      1.0  0.75262  0.66324  0.35175  1.0000
  N   N80       1.0  0.76404  0.70004  0.35253  1.0000
  H   H32       1.0  0.72475  0.64465  0.35843  1.0000
  C   C117      1.0  0.92196  0.26068  0.34067  1.0000
  N   N81       1.0  0.94825  0.25044  0.34102  1.0000
  H   H33       1.0  0.93067  0.28849  0.34527  1.0000
  C   C118      1.0  0.32310  0.51930  0.33370  1.0000
  N   N82       1.0  0.28532  0.50036  0.33622  1.0000
  H   H34       1.0  0.33721  0.54778  0.33748  1.0000
  C   C119      1.0  0.49756  0.80525  0.33290  1.0000
  N   N83       1.0  0.51692  0.78694  0.33775  1.0000
  H   H35       1.0  0.46906  0.79053  0.33563  1.0000
  C   C120      1.0  0.15051  0.69637  0.37999  1.0000
  N   N84       1.0  0.17396  0.73387  0.37853  1.0000
  H   H36       1.0  0.12244  0.68660  0.38263  1.0000
  C   C121      1.0  0.46224  0.25906  0.32731  1.0000
  C   C122      1.0  0.44167  0.27758  0.33644  1.0000
  N   N85       1.0  0.46063  0.31544  0.33947  1.0000
  C   C123      1.0  0.49852  0.33713  0.33207  1.0000
  H   H37       1.0  0.41333  0.26332  0.34423  1.0000
  C   C124      1.0  0.80539  0.54809  0.33298  1.0000
  C   C125      1.0  0.84388  0.56835  0.35148  1.0000
  N   N86       1.0  0.86256  0.54929  0.35800  1.0000
  C   C126      1.0  0.84648  0.51150  0.34838  1.0000
  H   H38       1.0  0.85778  0.59660  0.36086  1.0000
  C   C127      1.0  0.75258  0.20664  0.32831  1.0000
  C   C128      1.0  0.72868  0.22151  0.34475  1.0000
  N   N87       1.0  0.69123  0.19911  0.34127  1.0000
  C   C129      1.0  0.67471  0.16233  0.32131  1.0000
  H   H39       1.0  0.73866  0.24888  0.36111  1.0000
  C   C130      1.0  0.16601  0.48888  0.35255  1.0000
  C   C131      1.0  0.19253  0.52736  0.36322  1.0000
  N   N88       1.0  0.18108  0.55296  0.36263  1.0000
  C   C132      1.0  0.14483  0.54363  0.35199  1.0000
  H   H40       1.0  0.22034  0.53660  0.37123  1.0000
  C   C133      1.0  0.52789  0.67966  0.34549  1.0000
  C   C134      1.0  0.48934  0.66849  0.34744  1.0000
  N   N89       1.0  0.46318  0.63167  0.34528  1.0000
  C   C135      1.0  0.47193  0.60416  0.34106  1.0000
  H   H41       1.0  0.48042  0.68745  0.35069  1.0000
  C   C136      1.0  0.33533  0.84625  0.34455  1.0000
  C   C137      1.0  0.34716  0.81961  0.35508  1.0000
  N   N90       1.0  0.38382  0.83032  0.34587  1.0000
  C   C138      1.0  0.41029  0.86580  0.32513  1.0000
  H   H42       1.0  0.32893  0.79243  0.37133  1.0000
  C   C139      1.0  0.50789  0.11628  0.35786  1.0000
  N   N91       1.0  0.48200  0.12714  0.35443  1.0000
  H   H43       1.0  0.49861  0.08870  0.36999  1.0000
  C   C140      1.0  0.61787  0.50463  0.35187  1.0000
  N   N92       1.0  0.65461  0.53023  0.34529  1.0000
  H   H44       1.0  0.59980  0.51413  0.36466  1.0000
  C   C141      1.0  0.89712  0.39397  0.35152  1.0000
  N   N93       1.0  0.88618  0.35724  0.34631  1.0000
  H   H45       1.0  0.92498  0.41245  0.35883  1.0000
  C   C142      1.0  0.98923  0.56546  0.36833  1.0000
  N   N94       1.0  0.02698  0.58250  0.36456  1.0000
  H   H46       1.0  0.97681  0.57778  0.40256  1.0000
  C   C143      1.0  0.49791  0.47780  0.42652  1.0000
  N   N95       1.0  0.47867  0.49578  0.41582  1.0000
  H   H47       1.0  0.52374  0.49172  0.45567  1.0000
  C   C144      1.0  0.53176  0.02012  0.39207  1.0000
  N   N96       1.0  0.51512  0.98299  0.38255  1.0000
  H   H48       1.0  0.51666  0.03127  0.41845  1.0000
