data_image0
_chemical_formula_structural       C3NC3NC5NC5NC36H26C4H4C3NC3NC5NC5NC36H26C4H4C3NC3NC5NC5NC36H26C4H4C3HNO2NC3HNO2NC3HNO2NC3HNO2NC3HNO2NC3HNO2NC16H16C16H16C16H16C3HNO2NC3HNO2NC3HNO2NC3HNO2NC3HNO2NC3HNO2N
_chemical_formula_sum              "C252 N36 H150 O24"
_cell_length_a       67.6639
_cell_length_b       67.6639
_cell_length_c       14.8309
_cell_angle_alpha    89.717
_cell_angle_beta     90.283
_cell_angle_gamma    120

_space_group_name_H-M_alt    "P 1"
_space_group_IT_number       1

loop_
  _space_group_symop_operation_xyz
  'x, y, z'

loop_
  _atom_site_type_symbol
  _atom_site_label
  _atom_site_symmetry_multiplicity
  _atom_site_fract_x
  _atom_site_fract_y
  _atom_site_fract_z
  _atom_site_occupancy
  C   C1        1.0  0.05157  0.63512  0.33569  1.0000
  C   C2        1.0  0.02798  0.62317  0.33480  1.0000
  C   C3        1.0  0.02065  0.59986  0.33353  1.0000
  N   N1        1.0  0.04006  0.59860  0.33367  1.0000
  C   C4        1.0  0.05927  0.61942  0.33441  1.0000
  C   C5        1.0  0.08262  0.62519  0.33367  1.0000
  C   C6        1.0  0.09018  0.60899  0.33240  1.0000
  N   N2        1.0  0.07744  0.58594  0.33426  1.0000
  C   C7        1.0  0.09044  0.57592  0.33140  1.0000
  C   C8        1.0  0.11303  0.59376  0.32747  1.0000
  C   C9        1.0  0.11287  0.61407  0.32806  1.0000
  C   C10       1.0  0.08320  0.55223  0.33185  1.0000
  C   C11       1.0  0.05997  0.53441  0.33343  1.0000
  N   N3        1.0  0.04056  0.53567  0.33318  1.0000
  C   C12       1.0  0.02135  0.51485  0.33424  1.0000
  C   C13       1.0  0.02905  0.49915  0.33598  1.0000
  C   C14       1.0  0.05264  0.51110  0.33524  1.0000
  C   C15       1.0  0.99800  0.50908  0.33358  1.0000
  C   C16       1.0  0.99044  0.52527  0.33250  1.0000
  N   N4        1.0  0.00319  0.54832  0.33411  1.0000
  C   C17       1.0  0.99018  0.55835  0.33157  1.0000
  C   C18       1.0  0.96758  0.54050  0.32830  1.0000
  C   C19       1.0  0.96774  0.52019  0.32873  1.0000
  C   C20       1.0  0.99742  0.58204  0.33183  1.0000
  C   C21       1.0  0.97998  0.58810  0.32730  1.0000
  C   C22       1.0  0.97129  0.58991  0.24285  1.0000
  C   C23       1.0  0.95214  0.59285  0.23760  1.0000
  C   C24       1.0  0.94089  0.59397  0.31624  1.0000
  C   C25       1.0  0.92015  0.59485  0.30998  1.0000
  C   C26       1.0  0.87832  0.59615  0.29422  1.0000
  C   C27       1.0  0.88263  0.58167  0.23923  1.0000
  C   C28       1.0  0.90301  0.58100  0.24710  1.0000
  C   C29       1.0  0.98083  0.48545  0.33235  1.0000
  C   C30       1.0  0.97437  0.47320  0.25048  1.0000
  C   C31       1.0  0.95638  0.45040  0.24801  1.0000
  C   C32       1.0  0.94406  0.43908  0.32688  1.0000
  C   C33       1.0  0.92547  0.41597  0.32361  1.0000
  C   C34       1.0  0.92701  0.39920  0.27231  1.0000
  C   C35       1.0  0.90875  0.37658  0.26780  1.0000
  C   C36       1.0  0.88803  0.36964  0.31418  1.0000
  C   C37       1.0  0.10061  0.54615  0.32761  1.0000
  C   C38       1.0  0.13928  0.53964  0.31566  1.0000
  C   C39       1.0  0.12712  0.53972  0.23757  1.0000
  C   C40       1.0  0.10819  0.54299  0.24323  1.0000
  C   C41       1.0  0.15975  0.53830  0.30850  1.0000
  C   C42       1.0  0.17610  0.55087  0.24119  1.0000
  C   C43       1.0  0.19620  0.54974  0.23254  1.0000
  C   C44       1.0  0.20103  0.53610  0.29112  1.0000
  C   C45       1.0  0.09981  0.64881  0.33245  1.0000
  C   C46       1.0  0.10626  0.66116  0.25054  1.0000
  C   C47       1.0  0.12440  0.68389  0.24801  1.0000
  C   C48       1.0  0.13689  0.69503  0.32685  1.0000
  C   C49       1.0  0.15568  0.71804  0.32347  1.0000
  C   C50       1.0  0.19353  0.76416  0.31389  1.0000
  C   C51       1.0  0.17280  0.75754  0.26742  1.0000
  C   C52       1.0  0.15434  0.73501  0.27197  1.0000
  H   H1        1.0  0.17090  0.76912  0.22908  1.0000
  H   H2        1.0  0.13967  0.73122  0.23794  1.0000
  H   H3        1.0  0.12889  0.69200  0.18687  1.0000
  H   H4        1.0  0.09808  0.65351  0.19173  1.0000
  H   H5        1.0  0.06132  0.65252  0.33647  1.0000
  H   H6        1.0  0.01800  0.63057  0.33504  1.0000
  H   H7        1.0  0.04018  0.58447  0.33171  1.0000
  H   H8        1.0  0.04044  0.54981  0.33071  1.0000
  H   H9        1.0  0.12716  0.62985  0.32484  1.0000
  H   H10       1.0  0.12745  0.59252  0.32406  1.0000
  H   H11       1.0  0.10038  0.54374  0.18501  1.0000
  H   H12       1.0  0.13219  0.53775  0.17498  1.0000
  H   H13       1.0  0.06263  0.50370  0.33609  1.0000
  H   H14       1.0  0.01931  0.48175  0.33732  1.0000
  H   H15       1.0  0.95314  0.54174  0.32544  1.0000
  H   H16       1.0  0.95344  0.50442  0.32593  1.0000
  H   H17       1.0  0.98245  0.48096  0.19167  1.0000
  H   H18       1.0  0.95188  0.44235  0.18691  1.0000
  H   H19       1.0  0.91079  0.36516  0.22957  1.0000
  H   H20       1.0  0.94169  0.40322  0.23831  1.0000
  H   H21       1.0  0.90502  0.56992  0.20666  1.0000
  H   H22       1.0  0.87085  0.57130  0.19243  1.0000
  H   H23       1.0  0.94622  0.59378  0.17501  1.0000
  H   H24       1.0  0.97839  0.58833  0.18445  1.0000
  H   H25       1.0  0.17371  0.56134  0.19798  1.0000
  H   H26       1.0  0.20740  0.55919  0.18252  1.0000
  C   C53       1.0  0.85805  0.59657  0.28189  1.0000
  C   C54       1.0  0.87013  0.34710  0.30650  1.0000
  C   C55       1.0  0.22102  0.53523  0.27824  1.0000
  C   C56       1.0  0.21161  0.78661  0.30625  1.0000
  H   H27       1.0  0.84932  0.58984  0.22532  1.0000
  H   H28       1.0  0.20909  0.79775  0.27117  1.0000
  H   H29       1.0  0.22920  0.54115  0.22009  1.0000
  H   H30       1.0  0.87271  0.33619  0.27067  1.0000
  C   C57       1.0  0.47102  0.50780  0.33913  1.0000
  C   C58       1.0  0.48297  0.49615  0.33833  1.0000
  C   C59       1.0  0.50628  0.51213  0.33711  1.0000
  N   N5        1.0  0.50754  0.53280  0.33720  1.0000
  C   C60       1.0  0.48672  0.53120  0.33786  1.0000
  C   C61       1.0  0.48095  0.54878  0.33704  1.0000
  C   C62       1.0  0.49715  0.57254  0.33587  1.0000
  N   N6        1.0  0.52021  0.58284  0.33782  1.0000
  C   C63       1.0  0.53023  0.60587  0.33498  1.0000
  C   C64       1.0  0.51239  0.61063  0.33105  1.0000
  C   C65       1.0  0.49208  0.59016  0.33144  1.0000
  C   C66       1.0  0.55392  0.62231  0.33542  1.0000
  C   C67       1.0  0.57173  0.61689  0.33692  1.0000
  N   N7        1.0  0.57047  0.59623  0.33663  1.0000
  C   C68       1.0  0.59129  0.59783  0.33759  1.0000
  C   C69       1.0  0.60699  0.62123  0.33925  1.0000
  C   C70       1.0  0.59505  0.63287  0.33861  1.0000
  C   C71       1.0  0.59706  0.58026  0.33692  1.0000
  C   C72       1.0  0.58087  0.55650  0.33589  1.0000
  N   N8        1.0  0.55782  0.54620  0.33759  1.0000
  C   C73       1.0  0.54779  0.52317  0.33511  1.0000
  C   C74       1.0  0.56563  0.51842  0.33180  1.0000
  C   C75       1.0  0.58594  0.53888  0.33213  1.0000
  C   C76       1.0  0.52410  0.50673  0.33544  1.0000
  C   C77       1.0  0.51804  0.48324  0.33097  1.0000
  C   C78       1.0  0.51619  0.47290  0.24653  1.0000
  C   C79       1.0  0.51327  0.45082  0.24131  1.0000
  C   C80       1.0  0.51216  0.43829  0.31995  1.0000
  C   C81       1.0  0.51129  0.41669  0.31372  1.0000
  C   C82       1.0  0.51002  0.37361  0.29801  1.0000
  C   C83       1.0  0.52448  0.39251  0.24299  1.0000
  C   C84       1.0  0.52514  0.41353  0.25083  1.0000
  C   C85       1.0  0.62069  0.58671  0.33540  1.0000
  C   C86       1.0  0.63289  0.59270  0.25342  1.0000
  C   C87       1.0  0.65569  0.59752  0.25066  1.0000
  C   C88       1.0  0.66706  0.59634  0.32935  1.0000
  C   C89       1.0  0.69018  0.60089  0.32578  1.0000
  C   C90       1.0  0.70691  0.61934  0.27448  1.0000
  C   C91       1.0  0.72953  0.62372  0.26969  1.0000
  C   C92       1.0  0.73651  0.60982  0.31575  1.0000
  C   C93       1.0  0.56000  0.64581  0.33120  1.0000
  C   C94       1.0  0.56653  0.69103  0.31936  1.0000
  C   C95       1.0  0.56645  0.67896  0.24125  1.0000
  C   C96       1.0  0.56319  0.65675  0.24686  1.0000
  C   C97       1.0  0.56785  0.71284  0.31225  1.0000
  C   C98       1.0  0.55529  0.71677  0.24494  1.0000
  C   C99       1.0  0.55641  0.73802  0.23630  1.0000
  C   C100      1.0  0.57005  0.75636  0.29490  1.0000
  C   C101      1.0  0.45733  0.54235  0.33556  1.0000
  C   C102      1.0  0.44503  0.53659  0.25354  1.0000
  C   C103      1.0  0.42231  0.53202  0.25071  1.0000
  C   C104      1.0  0.41111  0.53321  0.32936  1.0000
  C   C105      1.0  0.38810  0.52899  0.32568  1.0000
  C   C106      1.0  0.34198  0.52072  0.31543  1.0000
  C   C107      1.0  0.34864  0.50669  0.26934  1.0000
  C   C108      1.0  0.37116  0.51075  0.27423  1.0000
  H   H31       1.0  0.33708  0.49327  0.23104  1.0000
  H   H32       1.0  0.37498  0.49994  0.24044  1.0000
  H   H33       1.0  0.41422  0.52848  0.18951  1.0000
  H   H34       1.0  0.45271  0.53617  0.19486  1.0000
  H   H35       1.0  0.45362  0.50014  0.33987  1.0000
  H   H36       1.0  0.47557  0.47877  0.33857  1.0000
  H   H37       1.0  0.52168  0.54706  0.33523  1.0000
  H   H38       1.0  0.55634  0.58198  0.33440  1.0000
  H   H39       1.0  0.47631  0.58868  0.32814  1.0000
  H   H40       1.0  0.51363  0.62630  0.32748  1.0000
  H   H41       1.0  0.56243  0.64833  0.18863  1.0000
  H   H42       1.0  0.56844  0.68615  0.17869  1.0000
  H   H43       1.0  0.60245  0.65025  0.33945  1.0000
  H   H44       1.0  0.62439  0.62888  0.34055  1.0000
  H   H45       1.0  0.56439  0.50275  0.32898  1.0000
  H   H46       1.0  0.60172  0.54036  0.32930  1.0000
  H   H47       1.0  0.62511  0.59318  0.19474  1.0000
  H   H48       1.0  0.66372  0.60125  0.18951  1.0000
  H   H49       1.0  0.74093  0.63728  0.23151  1.0000
  H   H50       1.0  0.70286  0.63008  0.24076  1.0000
  H   H51       1.0  0.53621  0.42671  0.21036  1.0000
  H   H52       1.0  0.53486  0.39121  0.19618  1.0000
  H   H53       1.0  0.51233  0.44410  0.17872  1.0000
  H   H54       1.0  0.51780  0.48171  0.18812  1.0000
  H   H55       1.0  0.54483  0.70402  0.20170  1.0000
  H   H56       1.0  0.54697  0.73988  0.18627  1.0000
  C   C109      1.0  0.50961  0.35295  0.28572  1.0000
  C   C110      1.0  0.75905  0.61450  0.30778  1.0000
  C   C111      1.0  0.57092  0.77725  0.28201  1.0000
  C   C112      1.0  0.31953  0.51636  0.30744  1.0000
  H   H57       1.0  0.51642  0.35110  0.22931  1.0000
  H   H58       1.0  0.30839  0.50269  0.27270  1.0000
  H   H59       1.0  0.56501  0.77964  0.22384  1.0000
  H   H60       1.0  0.76996  0.62816  0.27238  1.0000
  C   C113      1.0  0.59835  0.05457  0.34144  1.0000
  C   C114      1.0  0.60999  0.07816  0.34043  1.0000
  C   C115      1.0  0.59401  0.08549  0.33935  1.0000
  N   N9        1.0  0.57334  0.06608  0.33970  1.0000
  C   C116      1.0  0.57495  0.04687  0.34044  1.0000
  C   C117      1.0  0.55737  0.02352  0.33986  1.0000
  C   C118      1.0  0.53361  0.01595  0.33861  1.0000
  N   N10       1.0  0.52330  0.02870  0.34039  1.0000
  C   C119      1.0  0.50028  0.01570  0.33735  1.0000
  C   C120      1.0  0.49552  0.99311  0.33342  1.0000
  C   C121      1.0  0.51599  0.99327  0.33418  1.0000
  C   C122      1.0  0.48383  0.02294  0.33758  1.0000
  C   C123      1.0  0.48924  0.04617  0.33926  1.0000
  N   N11       1.0  0.50991  0.06557  0.33921  1.0000
  C   C124      1.0  0.50830  0.08478  0.34022  1.0000
  C   C125      1.0  0.48490  0.07708  0.34181  1.0000
  C   C126      1.0  0.47326  0.05349  0.34092  1.0000
  C   C127      1.0  0.52587  0.10813  0.33962  1.0000
  C   C128      1.0  0.54963  0.11570  0.33852  1.0000
  N   N12       1.0  0.55994  0.10295  0.34008  1.0000
  C   C129      1.0  0.58296  0.11596  0.33747  1.0000
  C   C130      1.0  0.58771  0.13856  0.33423  1.0000
  C   C131      1.0  0.56724  0.13840  0.33475  1.0000
  C   C132      1.0  0.59941  0.10872  0.33762  1.0000
  C   C133      1.0  0.62289  0.12615  0.33266  1.0000
  C   C134      1.0  0.63309  0.13479  0.24798  1.0000
  C   C135      1.0  0.65516  0.15395  0.24226  1.0000
  C   C136      1.0  0.66781  0.16525  0.32064  1.0000
  C   C137      1.0  0.68939  0.18600  0.31391  1.0000
  C   C138      1.0  0.73244  0.22783  0.29712  1.0000
  C   C139      1.0  0.71344  0.22349  0.24274  1.0000
  C   C140      1.0  0.69242  0.20311  0.25110  1.0000
  C   C141      1.0  0.51941  0.12531  0.33827  1.0000
  C   C142      1.0  0.51340  0.13171  0.25638  1.0000
  C   C143      1.0  0.50857  0.14969  0.25379  1.0000
  C   C144      1.0  0.50977  0.16205  0.33256  1.0000
  C   C145      1.0  0.50523  0.18063  0.32915  1.0000
  C   C146      1.0  0.48676  0.17904  0.27798  1.0000
  C   C147      1.0  0.48239  0.19730  0.27329  1.0000
  C   C148      1.0  0.49630  0.21806  0.31933  1.0000
  C   C149      1.0  0.46033  0.00553  0.33283  1.0000
  C   C150      1.0  0.41516  0.96685  0.31993  1.0000
  C   C151      1.0  0.42734  0.97905  0.24210  1.0000
  C   C152      1.0  0.44954  0.99800  0.24823  1.0000
  C   C153      1.0  0.39336  0.94637  0.31232  1.0000
  C   C154      1.0  0.38956  0.93005  0.24502  1.0000
  C   C155      1.0  0.36834  0.90993  0.23595  1.0000
  C   C156      1.0  0.34990  0.90505  0.29405  1.0000
  C   C157      1.0  0.56381  0.00633  0.33850  1.0000
  C   C158      1.0  0.56958  0.99995  0.25657  1.0000
  C   C159      1.0  0.57417  0.98181  0.25388  1.0000
  C   C160      1.0  0.57294  0.96926  0.33259  1.0000
  C   C161      1.0  0.57716  0.95047  0.32905  1.0000
  C   C162      1.0  0.58543  0.91264  0.31907  1.0000
  C   C163      1.0  0.59947  0.93341  0.27296  1.0000
  C   C164      1.0  0.59541  0.95187  0.27772  1.0000
  H   H61       1.0  0.61290  0.93536  0.23473  1.0000
  H   H62       1.0  0.60623  0.96657  0.24392  1.0000
  H   H63       1.0  0.57769  0.97736  0.19272  1.0000
  H   H64       1.0  0.57000  0.00816  0.19782  1.0000
  H   H65       1.0  0.60601  0.04483  0.34219  1.0000
  H   H66       1.0  0.62737  0.08815  0.34051  1.0000
  H   H67       1.0  0.55908  0.06596  0.33812  1.0000
  H   H68       1.0  0.52416  0.06570  0.33685  1.0000
  H   H69       1.0  0.51748  0.97898  0.33071  1.0000
  H   H70       1.0  0.47986  0.97869  0.32966  1.0000
  H   H71       1.0  0.45804  0.00583  0.19020  1.0000
  H   H72       1.0  0.42025  0.97403  0.17937  1.0000
  H   H73       1.0  0.45588  0.04351  0.34157  1.0000
  H   H74       1.0  0.47724  0.08682  0.34301  1.0000
  H   H75       1.0  0.60338  0.15300  0.33140  1.0000
  H   H76       1.0  0.56576  0.15270  0.33200  1.0000
  H   H77       1.0  0.51292  0.12359  0.19764  1.0000
  H   H78       1.0  0.50485  0.15415  0.19268  1.0000
  H   H79       1.0  0.46882  0.19522  0.23516  1.0000
  H   H80       1.0  0.47602  0.16433  0.24421  1.0000
  H   H81       1.0  0.67917  0.20107  0.21106  1.0000
  H   H82       1.0  0.71464  0.23524  0.19600  1.0000
  H   H83       1.0  0.66177  0.15985  0.17953  1.0000
  H   H84       1.0  0.62419  0.12769  0.18977  1.0000
  H   H85       1.0  0.40239  0.93247  0.20217  1.0000
  H   H86       1.0  0.36658  0.89876  0.18598  1.0000
  C   C165      1.0  0.75308  0.24809  0.28425  1.0000
  C   C166      1.0  0.49164  0.23595  0.31143  1.0000
  C   C167      1.0  0.32905  0.88504  0.28078  1.0000
  C   C168      1.0  0.58979  0.89457  0.31119  1.0000
  H   H87       1.0  0.75482  0.25684  0.22786  1.0000
  H   H88       1.0  0.60346  0.89717  0.27654  1.0000
  H   H89       1.0  0.32682  0.87679  0.22291  1.0000
  H   H90       1.0  0.47797  0.23329  0.27605  1.0000
  C   C169      1.0  0.29189  0.52743  0.33689  1.0000
  C   C170      1.0  0.28039  0.52559  0.25443  1.0000
  C   C171      1.0  0.25935  0.52538  0.25557  1.0000
  H   H91       1.0  0.25126  0.52393  0.19551  1.0000
  N   N13       1.0  0.29045  0.52471  0.17219  1.0000
  O   O1        1.0  0.27778  0.50662  0.12995  1.0000
  O   O2        1.0  0.29462  0.54140  0.12214  1.0000
  N   N14       1.0  0.31245  0.52917  0.34159  1.0000
  C   C172      1.0  0.57869  0.85578  0.34061  1.0000
  C   C173      1.0  0.58055  0.84630  0.25817  1.0000
  C   C174      1.0  0.58076  0.82547  0.25933  1.0000
  H   H92       1.0  0.58222  0.81897  0.19927  1.0000
  N   N15       1.0  0.58143  0.85742  0.17592  1.0000
  O   O3        1.0  0.59953  0.86294  0.13371  1.0000
  O   O4        1.0  0.56475  0.84502  0.12586  1.0000
  N   N16       1.0  0.57695  0.87459  0.34528  1.0000
  C   C175      1.0  0.25033  0.81425  0.33695  1.0000
  C   C176      1.0  0.25999  0.82581  0.25476  1.0000
  C   C177      1.0  0.28083  0.84684  0.25651  1.0000
  H   H93       1.0  0.28747  0.85497  0.19664  1.0000
  N   N17       1.0  0.24905  0.81581  0.17219  1.0000
  O   O5        1.0  0.24363  0.82851  0.12963  1.0000
  O   O6        1.0  0.26155  0.81165  0.12265  1.0000
  N   N18       1.0  0.23151  0.79370  0.34116  1.0000
  C   C178      1.0  0.78717  0.60404  0.33835  1.0000
  C   C179      1.0  0.79854  0.60587  0.25596  1.0000
  C   C180      1.0  0.81974  0.60641  0.25744  1.0000
  H   H94       1.0  0.82773  0.60783  0.19745  1.0000
  N   N19       1.0  0.78818  0.60639  0.17351  1.0000
  O   O7        1.0  0.80055  0.62446  0.13031  1.0000
  O   O8        1.0  0.78412  0.58967  0.12447  1.0000
  N   N20       1.0  0.76648  0.60198  0.34284  1.0000
  C   C181      1.0  0.50211  0.27447  0.34205  1.0000
  C   C182      1.0  0.50029  0.28419  0.25967  1.0000
  C   C183      1.0  0.49975  0.30485  0.26118  1.0000
  H   H95       1.0  0.49834  0.31156  0.20119  1.0000
  N   N21       1.0  0.49978  0.27350  0.17720  1.0000
  O   O9        1.0  0.48172  0.26791  0.13396  1.0000
  O   O10       1.0  0.51651  0.28627  0.12821  1.0000
  N   N22       1.0  0.50416  0.25583  0.34651  1.0000
  C   C184      1.0  0.83168  0.31896  0.33838  1.0000
  C   C185      1.0  0.82178  0.30757  0.25624  1.0000
  C   C186      1.0  0.80113  0.28637  0.25829  1.0000
  H   H96       1.0  0.79429  0.27835  0.19848  1.0000
  N   N23       1.0  0.83229  0.31789  0.17347  1.0000
  O   O11       1.0  0.83778  0.30550  0.12981  1.0000
  O   O12       1.0  0.81942  0.32194  0.12508  1.0000
  N   N24       1.0  0.85034  0.33965  0.34242  1.0000
  C   C187      1.0  0.95021  0.59289  0.40069  1.0000
  C   C188      1.0  0.96933  0.58982  0.40624  1.0000
  C   C189      1.0  0.91572  0.60912  0.36601  1.0000
  C   C190      1.0  0.89527  0.60983  0.35812  1.0000
  C   C191      1.0  0.95073  0.45153  0.40869  1.0000
  C   C192      1.0  0.96881  0.47430  0.41152  1.0000
  C   C193      1.0  0.88646  0.38638  0.36575  1.0000
  C   C194      1.0  0.90481  0.40901  0.37055  1.0000
  C   C195      1.0  0.11217  0.54549  0.40615  1.0000
  C   C196      1.0  0.13110  0.54214  0.40021  1.0000
  C   C197      1.0  0.18488  0.52370  0.35933  1.0000
  C   C198      1.0  0.16470  0.52487  0.36797  1.0000
  C   C199      1.0  0.11199  0.65980  0.41162  1.0000
  C   C200      1.0  0.13022  0.68250  0.40872  1.0000
  C   C201      1.0  0.17635  0.72469  0.37045  1.0000
  C   C202      1.0  0.19489  0.74722  0.36560  1.0000
  H   H97       1.0  0.20952  0.75106  0.40009  1.0000
  H   H98       1.0  0.17834  0.71296  0.40726  1.0000
  H   H99       1.0  0.13852  0.68986  0.46763  1.0000
  H   H100      1.0  0.10789  0.65120  0.47179  1.0000
  H   H101      1.0  0.10737  0.54824  0.46805  1.0000
  H   H102      1.0  0.13962  0.54278  0.45830  1.0000
  H   H103      1.0  0.97295  0.48282  0.47169  1.0000
  H   H104      1.0  0.94255  0.44404  0.46762  1.0000
  H   H105      1.0  0.90267  0.42058  0.40719  1.0000
  H   H106      1.0  0.87183  0.38231  0.40013  1.0000
  H   H107      1.0  0.97492  0.58801  0.46832  1.0000
  H   H108      1.0  0.94236  0.59301  0.45931  1.0000
  H   H109      1.0  0.89301  0.62070  0.39887  1.0000
  H   H110      1.0  0.92769  0.61961  0.41189  1.0000
  H   H111      1.0  0.15331  0.51529  0.41713  1.0000
  H   H112      1.0  0.18753  0.51346  0.40286  1.0000
  C   C203      1.0  0.51328  0.44854  0.40439  1.0000
  C   C204      1.0  0.51630  0.47069  0.40993  1.0000
  C   C205      1.0  0.49704  0.39788  0.36978  1.0000
  C   C206      1.0  0.49634  0.37674  0.36193  1.0000
  C   C207      1.0  0.65466  0.59035  0.41128  1.0000
  C   C208      1.0  0.63189  0.58566  0.41441  1.0000
  C   C209      1.0  0.71980  0.59138  0.36728  1.0000
  C   C210      1.0  0.69716  0.58706  0.37235  1.0000
  C   C211      1.0  0.56068  0.65787  0.40980  1.0000
  C   C212      1.0  0.56401  0.68014  0.40389  1.0000
  C   C213      1.0  0.58243  0.75246  0.36314  1.0000
  C   C214      1.0  0.58128  0.73110  0.37173  1.0000
  C   C215      1.0  0.44629  0.54339  0.41454  1.0000
  C   C216      1.0  0.42360  0.53893  0.41134  1.0000
  C   C217      1.0  0.38142  0.54293  0.37229  1.0000
  C   C218      1.0  0.35889  0.53895  0.36711  1.0000
  H   H113      1.0  0.35502  0.54967  0.40135  1.0000
  H   H114      1.0  0.39312  0.55659  0.40905  1.0000
  H   H115      1.0  0.41621  0.53978  0.47012  1.0000
  H   H116      1.0  0.45487  0.54781  0.47477  1.0000
  H   H117      1.0  0.55787  0.65015  0.47165  1.0000
  H   H118      1.0  0.56335  0.68789  0.46198  1.0000
  H   H119      1.0  0.62341  0.58113  0.47465  1.0000
  H   H120      1.0  0.66219  0.58954  0.47010  1.0000
  H   H121      1.0  0.68563  0.57327  0.40905  1.0000
  H   H122      1.0  0.72390  0.58073  0.40148  1.0000
  H   H123      1.0  0.51817  0.47799  0.47200  1.0000
  H   H124      1.0  0.51315  0.44044  0.46301  1.0000
  H   H125      1.0  0.48548  0.36352  0.40272  1.0000
  H   H126      1.0  0.48655  0.39925  0.41570  1.0000
  H   H127      1.0  0.59086  0.72918  0.42090  1.0000
  H   H128      1.0  0.59268  0.76525  0.40665  1.0000
  C   C219      1.0  0.65769  0.15598  0.40531  1.0000
  C   C220      1.0  0.63555  0.13684  0.41133  1.0000
  C   C221      1.0  0.70830  0.19046  0.36939  1.0000
  C   C222      1.0  0.72944  0.21091  0.36096  1.0000
  C   C223      1.0  0.51578  0.15544  0.41440  1.0000
  C   C224      1.0  0.52048  0.13737  0.41737  1.0000
  C   C225      1.0  0.51475  0.21968  0.37079  1.0000
  C   C226      1.0  0.51906  0.20134  0.37577  1.0000
  C   C227      1.0  0.44817  0.99393  0.41114  1.0000
  C   C228      1.0  0.42591  0.97498  0.40471  1.0000
  C   C229      1.0  0.35367  0.92117  0.36223  1.0000
  C   C230      1.0  0.37500  0.94137  0.37130  1.0000
  C   C231      1.0  0.56274  0.99409  0.41754  1.0000
  C   C232      1.0  0.56720  0.97586  0.41450  1.0000
  C   C233      1.0  0.56320  0.92976  0.37570  1.0000
  C   C234      1.0  0.56719  0.91122  0.37063  1.0000
  H   H129      1.0  0.55646  0.89656  0.40488  1.0000
  H   H130      1.0  0.54954  0.92772  0.41237  1.0000
  H   H131      1.0  0.56634  0.96750  0.47332  1.0000
  H   H132      1.0  0.55832  0.99813  0.47773  1.0000
  H   H133      1.0  0.45577  0.99867  0.47318  1.0000
  H   H134      1.0  0.41807  0.96643  0.46265  1.0000
  H   H135      1.0  0.52502  0.13327  0.47755  1.0000
  H   H136      1.0  0.51661  0.16365  0.47327  1.0000
  H   H137      1.0  0.53287  0.20351  0.41232  1.0000
  H   H138      1.0  0.52542  0.23435  0.40493  1.0000
  H   H139      1.0  0.62836  0.13128  0.47357  1.0000
  H   H140      1.0  0.66590  0.16384  0.46376  1.0000
  H   H141      1.0  0.74273  0.21319  0.40127  1.0000
  H   H142      1.0  0.70702  0.17851  0.41516  1.0000
  H   H143      1.0  0.37683  0.95273  0.42044  1.0000
  H   H144      1.0  0.34081  0.91849  0.40543  1.0000
  C   C235      1.0  0.24961  0.52756  0.33661  1.0000
  C   C236      1.0  0.26104  0.52910  0.41889  1.0000
  C   C237      1.0  0.28209  0.52928  0.41791  1.0000
  H   H145      1.0  0.29041  0.53086  0.47766  1.0000
  N   N25       1.0  0.25131  0.53086  0.50065  1.0000
  O   O13       1.0  0.24695  0.51445  0.55253  1.0000
  O   O14       1.0  0.26435  0.54915  0.54104  1.0000
  N   N26       1.0  0.23028  0.52858  0.33839  1.0000
  C   C238      1.0  0.57857  0.81339  0.34037  1.0000
  C   C239      1.0  0.57703  0.82309  0.42264  1.0000
  C   C240      1.0  0.57684  0.84397  0.42165  1.0000
  H   H146      1.0  0.57526  0.85057  0.48139  1.0000
  N   N27       1.0  0.57525  0.81142  0.50440  1.0000
  O   O15       1.0  0.59167  0.82337  0.55631  1.0000
  O   O16       1.0  0.55696  0.80608  0.54478  1.0000
  N   N28       1.0  0.57756  0.79303  0.34217  1.0000
  C   C241      1.0  0.29274  0.85652  0.33792  1.0000
  C   C242      1.0  0.28285  0.84505  0.41992  1.0000
  C   C243      1.0  0.26197  0.82400  0.41834  1.0000
  H   H147      1.0  0.25524  0.81565  0.47791  1.0000
  N   N29       1.0  0.29435  0.85472  0.50204  1.0000
  O   O17       1.0  0.28229  0.85905  0.55341  1.0000
  O   O18       1.0  0.29959  0.84165  0.54276  1.0000
  N   N30       1.0  0.31309  0.87585  0.34026  1.0000
  C   C244      1.0  0.82977  0.60458  0.33879  1.0000
  C   C245      1.0  0.81850  0.60309  0.42099  1.0000
  C   C246      1.0  0.79728  0.60256  0.41967  1.0000
  H   H148      1.0  0.78908  0.60100  0.47938  1.0000
  N   N31       1.0  0.82855  0.60168  0.50301  1.0000
  O   O19       1.0  0.83280  0.61816  0.55386  1.0000
  O   O20       1.0  0.81580  0.58343  0.54443  1.0000
  N   N32       1.0  0.84927  0.60388  0.34079  1.0000
  C   C247      1.0  0.50156  0.31652  0.34255  1.0000
  C   C248      1.0  0.50304  0.30656  0.42474  1.0000
  C   C249      1.0  0.50357  0.28586  0.42339  1.0000
  H   H149      1.0  0.50512  0.27908  0.48310  1.0000
  N   N33       1.0  0.50443  0.31781  0.50677  1.0000
  O   O21       1.0  0.48794  0.30547  0.55756  1.0000
  O   O22       1.0  0.52267  0.32323  0.54825  1.0000
  N   N34       1.0  0.50225  0.33672  0.34455  1.0000
  C   C250      1.0  0.78963  0.27637  0.34000  1.0000
  C   C251      1.0  0.79977  0.28767  0.42195  1.0000
  C   C252      1.0  0.82047  0.30889  0.42004  1.0000
  H   H150      1.0  0.82738  0.31711  0.47959  1.0000
  N   N35       1.0  0.78869  0.27765  0.50430  1.0000
  O   O23       1.0  0.80114  0.27341  0.55451  1.0000
  O   O24       1.0  0.78338  0.29042  0.54619  1.0000
  N   N36       1.0  0.76944  0.25687  0.34256  1.0000
