data_image0
_chemical_formula_structural       C3NC3NC5NC5NC20H18C4H4C3NC3NC5NC5NC20H18C4H4C3NC3NC5NC5NC20H18C4H4C3O2H2NC3O2H2NC3O2H2NC3O2H2NC3O2H2NC3O2H2NC8H8C8H8C8H8C3OHOHNC3OHOHNC3OHOHNC3OHOHNC3OHOHNC3OHOHN
_chemical_formula_sum              "C180 N24 H114 O24"
_cell_length_a       50.6003
_cell_length_b       50.6003
_cell_length_c       14.7663
_cell_angle_alpha    90.016
_cell_angle_beta     89.984
_cell_angle_gamma    120

_space_group_name_H-M_alt    "P 1"
_space_group_IT_number       1

loop_
  _space_group_symop_operation_xyz
  'x, y, z'

loop_
  _atom_site_type_symbol
  _atom_site_label
  _atom_site_symmetry_multiplicity
  _atom_site_fract_x
  _atom_site_fract_y
  _atom_site_fract_z
  _atom_site_occupancy
  C   C1        1.0  0.02300  0.63897  0.34083  1.0000
  C   C2        1.0  0.05455  0.65516  0.34214  1.0000
  C   C3        1.0  0.06511  0.63437  0.34092  1.0000
  N   N1        1.0  0.03952  0.60642  0.34044  1.0000
  C   C4        1.0  0.01343  0.60786  0.33953  1.0000
  C   C5        1.0  0.98246  0.58387  0.33660  1.0000
  C   C6        1.0  0.97301  0.55223  0.33657  1.0000
  N   N2        1.0  0.99047  0.53894  0.34146  1.0000
  C   C7        1.0  0.97358  0.50811  0.33790  1.0000
  C   C8        1.0  0.94326  0.50121  0.33048  1.0000
  C   C9        1.0  0.94290  0.52827  0.33004  1.0000
  C   C10       1.0  0.98379  0.48652  0.33937  1.0000
  C   C11       1.0  0.01510  0.49448  0.34105  1.0000
  N   N3        1.0  0.04068  0.52243  0.34053  1.0000
  C   C12       1.0  0.06676  0.52098  0.33966  1.0000
  C   C13       1.0  0.05720  0.48987  0.34129  1.0000
  C   C14       1.0  0.02565  0.47369  0.34262  1.0000
  C   C15       1.0  0.09773  0.54497  0.33650  1.0000
  C   C16       1.0  0.10718  0.57661  0.33658  1.0000
  N   N4        1.0  0.08972  0.58990  0.34151  1.0000
  C   C17       1.0  0.10662  0.62073  0.33809  1.0000
  C   C18       1.0  0.13694  0.62762  0.33068  1.0000
  C   C19       1.0  0.13729  0.60055  0.33007  1.0000
  C   C20       1.0  0.09643  0.64234  0.33940  1.0000
  C   C21       1.0  0.11936  0.67400  0.33450  1.0000
  C   C22       1.0  0.16883  0.73547  0.31836  1.0000
  C   C23       1.0  0.14918  0.72042  0.24435  1.0000
  C   C24       1.0  0.12506  0.69008  0.25194  1.0000
  C   C25       1.0  0.12123  0.53724  0.32722  1.0000
  C   C26       1.0  0.17578  0.53409  0.30403  1.0000
  C   C27       1.0  0.15827  0.53365  0.22857  1.0000
  C   C28       1.0  0.13144  0.53516  0.23986  1.0000
  C   C29       1.0  0.96089  0.45487  0.33440  1.0000
  C   C30       1.0  0.95529  0.43877  0.25186  1.0000
  C   C31       1.0  0.93128  0.40839  0.24432  1.0000
  C   C32       1.0  0.91168  0.39331  0.31839  1.0000
  C   C33       1.0  0.95894  0.59157  0.32731  1.0000
  C   C34       1.0  0.94885  0.59380  0.23996  1.0000
  C   C35       1.0  0.90425  0.59444  0.30399  1.0000
  C   C36       1.0  0.92195  0.59521  0.22861  1.0000
  H   H1        1.0  0.91470  0.59545  0.16401  1.0000
  H   H2        1.0  0.96005  0.59264  0.18368  1.0000
  H   H3        1.0  0.00948  0.64868  0.34067  1.0000
  H   H4        1.0  0.06742  0.67843  0.34296  1.0000
  H   H5        1.0  0.03981  0.58759  0.33825  1.0000
  H   H6        1.0  0.04039  0.54125  0.33747  1.0000
  H   H7        1.0  0.92358  0.52978  0.32389  1.0000
  H   H8        1.0  0.92425  0.48015  0.32444  1.0000
  H   H9        1.0  0.96847  0.44924  0.19616  1.0000
  H   H10       1.0  0.92789  0.39754  0.18326  1.0000
  H   H11       1.0  0.01278  0.45041  0.34354  1.0000
  H   H12       1.0  0.07071  0.48016  0.34117  1.0000
  H   H13       1.0  0.15595  0.64868  0.32441  1.0000
  H   H14       1.0  0.15661  0.59904  0.32377  1.0000
  H   H15       1.0  0.12034  0.53649  0.18356  1.0000
  H   H16       1.0  0.16557  0.53345  0.16399  1.0000
  H   H17       1.0  0.11188  0.67965  0.19622  1.0000
  H   H18       1.0  0.15264  0.73124  0.18323  1.0000
  C   C37       1.0  0.20405  0.53628  0.28960  1.0000
  C   C38       1.0  0.88831  0.36321  0.30891  1.0000
  C   C39       1.0  0.87592  0.59209  0.28944  1.0000
  C   C40       1.0  0.19234  0.76551  0.30874  1.0000
  H   H19       1.0  0.21526  0.54655  0.23323  1.0000
  H   H20       1.0  0.89226  0.34930  0.27097  1.0000
  H   H21       1.0  0.86481  0.58185  0.23289  1.0000
  H   H22       1.0  0.18855  0.77943  0.27034  1.0000
  C   C41       1.0  0.46497  0.47166  0.34120  1.0000
  C   C42       1.0  0.44879  0.48704  0.34256  1.0000
  C   C43       1.0  0.46958  0.51838  0.34096  1.0000
  N   N5        1.0  0.49753  0.52073  0.34048  1.0000
  C   C44       1.0  0.49608  0.49320  0.33964  1.0000
  C   C45       1.0  0.52007  0.48621  0.33647  1.0000
  C   C46       1.0  0.55171  0.50840  0.33636  1.0000
  N   N6        1.0  0.56500  0.53915  0.34130  1.0000
  C   C47       1.0  0.59583  0.55309  0.33769  1.0000
  C   C48       1.0  0.60272  0.52966  0.33017  1.0000
  C   C49       1.0  0.57566  0.50224  0.32964  1.0000
  C   C50       1.0  0.61744  0.58489  0.33916  1.0000
  C   C51       1.0  0.60948  0.60824  0.34092  1.0000
  N   N7        1.0  0.58153  0.60587  0.34043  1.0000
  C   C52       1.0  0.58298  0.63341  0.33961  1.0000
  C   C53       1.0  0.61409  0.65495  0.34115  1.0000
  C   C54       1.0  0.63027  0.63958  0.34252  1.0000
  C   C55       1.0  0.55899  0.64039  0.33655  1.0000
  C   C56       1.0  0.52735  0.61821  0.33637  1.0000
  N   N8        1.0  0.51406  0.58745  0.34124  1.0000
  C   C57       1.0  0.48323  0.57352  0.33769  1.0000
  C   C58       1.0  0.47635  0.59696  0.33025  1.0000
  C   C59       1.0  0.50341  0.62437  0.32978  1.0000
  C   C60       1.0  0.46162  0.54172  0.33916  1.0000
  C   C61       1.0  0.42997  0.53301  0.33430  1.0000
  C   C62       1.0  0.36850  0.52098  0.31833  1.0000
  C   C63       1.0  0.38353  0.51637  0.24426  1.0000
  C   C64       1.0  0.41386  0.52257  0.25179  1.0000
  C   C65       1.0  0.56672  0.67161  0.32719  1.0000
  C   C66       1.0  0.56981  0.72926  0.30391  1.0000
  C   C67       1.0  0.57027  0.71219  0.22847  1.0000
  C   C68       1.0  0.56874  0.68383  0.23980  1.0000
  C   C69       1.0  0.64909  0.59363  0.33422  1.0000
  C   C70       1.0  0.66522  0.60416  0.25175  1.0000
  C   C71       1.0  0.69561  0.61053  0.24426  1.0000
  C   C72       1.0  0.71068  0.60601  0.31833  1.0000
  C   C73       1.0  0.51235  0.45498  0.32719  1.0000
  C   C74       1.0  0.51011  0.44263  0.23986  1.0000
  C   C75       1.0  0.50946  0.39739  0.30386  1.0000
  C   C76       1.0  0.50871  0.41432  0.22849  1.0000
  H   H23       1.0  0.50844  0.40681  0.16388  1.0000
  H   H24       1.0  0.51126  0.45498  0.18357  1.0000
  H   H25       1.0  0.45525  0.44843  0.34098  1.0000
  H   H26       1.0  0.42551  0.47663  0.34319  1.0000
  H   H27       1.0  0.51635  0.53984  0.33743  1.0000
  H   H28       1.0  0.56271  0.58676  0.33772  1.0000
  H   H29       1.0  0.57415  0.48141  0.32357  1.0000
  H   H30       1.0  0.62379  0.53171  0.32411  1.0000
  H   H31       1.0  0.65478  0.60691  0.19606  1.0000
  H   H32       1.0  0.70648  0.61804  0.18326  1.0000
  H   H33       1.0  0.65355  0.64999  0.34322  1.0000
  H   H34       1.0  0.62381  0.67818  0.34101  1.0000
  H   H35       1.0  0.45528  0.59491  0.32435  1.0000
  H   H36       1.0  0.50493  0.64521  0.32392  1.0000
  H   H37       1.0  0.56742  0.67140  0.18352  1.0000
  H   H38       1.0  0.57040  0.71964  0.16387  1.0000
  H   H39       1.0  0.42429  0.51983  0.19604  1.0000
  H   H40       1.0  0.37268  0.50897  0.18319  1.0000
  C   C77       1.0  0.56761  0.75533  0.28946  1.0000
  C   C78       1.0  0.74078  0.61273  0.30886  1.0000
  C   C79       1.0  0.51180  0.37140  0.28925  1.0000
  C   C80       1.0  0.33846  0.51445  0.30882  1.0000
  H   H41       1.0  0.55730  0.75623  0.23314  1.0000
  H   H42       1.0  0.75468  0.63057  0.27085  1.0000
  H   H43       1.0  0.52196  0.37048  0.23260  1.0000
  H   H44       1.0  0.32451  0.49669  0.27063  1.0000
  C   C81       1.0  0.63265  0.08121  0.34071  1.0000
  C   C82       1.0  0.61736  0.04966  0.34206  1.0000
  C   C83       1.0  0.58600  0.03902  0.34077  1.0000
  N   N9        1.0  0.58354  0.06455  0.34042  1.0000
  C   C84       1.0  0.61102  0.09068  0.33950  1.0000
  C   C85       1.0  0.61789  0.12162  0.33657  1.0000
  C   C86       1.0  0.59564  0.13099  0.33653  1.0000
  N   N10       1.0  0.56489  0.11347  0.34141  1.0000
  C   C87       1.0  0.55089  0.13031  0.33794  1.0000
  C   C88       1.0  0.57427  0.16065  0.33050  1.0000
  C   C89       1.0  0.60172  0.16108  0.32995  1.0000
  C   C90       1.0  0.51907  0.12004  0.33934  1.0000
  C   C91       1.0  0.49581  0.08869  0.34083  1.0000
  N   N11       1.0  0.49827  0.06315  0.34032  1.0000
  C   C92       1.0  0.47078  0.03701  0.33939  1.0000
  C   C93       1.0  0.44916  0.04649  0.34070  1.0000
  C   C94       1.0  0.46445  0.07804  0.34208  1.0000
  C   C95       1.0  0.46388  0.00606  0.33641  1.0000
  C   C96       1.0  0.48614  0.99670  0.33629  1.0000
  N   N12       1.0  0.51689  0.01423  0.34111  1.0000
  C   C97       1.0  0.53090  0.99740  0.33764  1.0000
  C   C98       1.0  0.50753  0.96706  0.33029  1.0000
  C   C99       1.0  0.48006  0.96661  0.32982  1.0000
  C   C100      1.0  0.56272  0.00768  0.33913  1.0000
  C   C101      1.0  0.57152  0.98481  0.33427  1.0000
  C   C102      1.0  0.58340  0.93528  0.31821  1.0000
  C   C103      1.0  0.58795  0.95485  0.24406  1.0000
  C   C104      1.0  0.58182  0.97903  0.25165  1.0000
  C   C105      1.0  0.43269  0.98251  0.32703  1.0000
  C   C106      1.0  0.37485  0.92810  0.30389  1.0000
  C   C107      1.0  0.39198  0.94556  0.22842  1.0000
  C   C108      1.0  0.42039  0.97235  0.23969  1.0000
  C   C109      1.0  0.51026  0.14290  0.33436  1.0000
  C   C110      1.0  0.49977  0.14850  0.25184  1.0000
  C   C111      1.0  0.49342  0.17253  0.24422  1.0000
  C   C112      1.0  0.49797  0.19218  0.31819  1.0000
  C   C113      1.0  0.64908  0.14518  0.32718  1.0000
  C   C114      1.0  0.66138  0.15529  0.23982  1.0000
  C   C115      1.0  0.70661  0.19987  0.30385  1.0000
  C   C116      1.0  0.68966  0.18221  0.22845  1.0000
  H   H45       1.0  0.69718  0.18944  0.16385  1.0000
  H   H46       1.0  0.64902  0.14408  0.18355  1.0000
  H   H47       1.0  0.65586  0.09478  0.34042  1.0000
  H   H48       1.0  0.62783  0.03685  0.34254  1.0000
  H   H49       1.0  0.56439  0.06419  0.33804  1.0000
  H   H50       1.0  0.51741  0.06350  0.33811  1.0000
  H   H51       1.0  0.62253  0.18043  0.32393  1.0000
  H   H52       1.0  0.57217  0.17963  0.32449  1.0000
  H   H53       1.0  0.49705  0.13530  0.19616  1.0000
  H   H54       1.0  0.48597  0.17590  0.18315  1.0000
  H   H55       1.0  0.45397  0.09084  0.34282  1.0000
  H   H56       1.0  0.42594  0.03292  0.34047  1.0000
  H   H57       1.0  0.50963  0.94807  0.32458  1.0000
  H   H58       1.0  0.45925  0.94725  0.32406  1.0000
  H   H59       1.0  0.43284  0.98339  0.18337  1.0000
  H   H60       1.0  0.38448  0.93827  0.16385  1.0000
  H   H61       1.0  0.58448  0.99214  0.19583  1.0000
  H   H62       1.0  0.59523  0.95131  0.18290  1.0000
  C   C117      1.0  0.34868  0.89990  0.28946  1.0000
  C   C118      1.0  0.49127  0.21558  0.30859  1.0000
  C   C119      1.0  0.73256  0.22821  0.28933  1.0000
  C   C120      1.0  0.58979  0.91167  0.30861  1.0000
  H   H63       1.0  0.34769  0.88868  0.23304  1.0000
  H   H64       1.0  0.47350  0.21166  0.27028  1.0000
  H   H65       1.0  0.73342  0.23936  0.23291  1.0000
  H   H66       1.0  0.60754  0.91541  0.27049  1.0000
  C   C121      1.0  0.30087  0.52863  0.34191  1.0000
  C   C122      1.0  0.28332  0.52183  0.26145  1.0000
  C   C123      1.0  0.25484  0.52083  0.26138  1.0000
  O   O1        1.0  0.29339  0.51620  0.18223  1.0000
  O   O2        1.0  0.23768  0.51207  0.18444  1.0000
  H   H67       1.0  0.30749  0.53625  0.15573  1.0000
  H   H68       1.0  0.24735  0.52934  0.14203  1.0000
  N   N13       1.0  0.32834  0.53078  0.34551  1.0000
  C   C124      1.0  0.57538  0.85986  0.34162  1.0000
  C   C125      1.0  0.58213  0.84905  0.26116  1.0000
  C   C126      1.0  0.58310  0.82157  0.26113  1.0000
  O   O3        1.0  0.58778  0.86473  0.18192  1.0000
  O   O4        1.0  0.59186  0.81313  0.18420  1.0000
  H   H69       1.0  0.56773  0.85881  0.15547  1.0000
  H   H70       1.0  0.57458  0.80552  0.14180  1.0000
  N   N14       1.0  0.57335  0.88525  0.34524  1.0000
  C   C127      1.0  0.24410  0.80316  0.34196  1.0000
  C   C128      1.0  0.25489  0.82071  0.26149  1.0000
  C   C129      1.0  0.28238  0.84917  0.26139  1.0000
  O   O5        1.0  0.23920  0.81065  0.18227  1.0000
  O   O6        1.0  0.29081  0.86632  0.18442  1.0000
  H   H71       1.0  0.24514  0.79654  0.15579  1.0000
  H   H72       1.0  0.29837  0.85661  0.14200  1.0000
  N   N15       1.0  0.21877  0.77569  0.34559  1.0000
  C   C130      1.0  0.77858  0.59885  0.34185  1.0000
  C   C131      1.0  0.79619  0.60580  0.26143  1.0000
  C   C132      1.0  0.82476  0.60702  0.26136  1.0000
  O   O7        1.0  0.78607  0.61139  0.18225  1.0000
  O   O8        1.0  0.84196  0.61593  0.18447  1.0000
  H   H73       1.0  0.77207  0.59133  0.15564  1.0000
  H   H74       1.0  0.83239  0.59868  0.14194  1.0000
  N   N16       1.0  0.75103  0.59651  0.34543  1.0000
  C   C133      1.0  0.50506  0.26726  0.34174  1.0000
  C   C134      1.0  0.49812  0.27792  0.26132  1.0000
  C   C135      1.0  0.49692  0.30529  0.26123  1.0000
  O   O9        1.0  0.49253  0.26221  0.18213  1.0000
  O   O10       1.0  0.48801  0.31356  0.18432  1.0000
  H   H75       1.0  0.51259  0.26829  0.15549  1.0000
  H   H76       1.0  0.50527  0.32124  0.14181  1.0000
  N   N17       1.0  0.50740  0.24204  0.34537  1.0000
  C   C136      1.0  0.83663  0.32544  0.34179  1.0000
  C   C137      1.0  0.82601  0.30786  0.26134  1.0000
  C   C138      1.0  0.79867  0.27927  0.26126  1.0000
  O   O11       1.0  0.84172  0.31799  0.18217  1.0000
  O   O12       1.0  0.79039  0.26208  0.18435  1.0000
  H   H77       1.0  0.83564  0.33198  0.15558  1.0000
  H   H78       1.0  0.78271  0.27164  0.14184  1.0000
  N   N18       1.0  0.86183  0.35299  0.34539  1.0000
  C   C139      1.0  0.13867  0.68909  0.40902  1.0000
  C   C140      1.0  0.16308  0.71932  0.40101  1.0000
  C   C141      1.0  0.13811  0.53687  0.40304  1.0000
  C   C142      1.0  0.16491  0.53517  0.39161  1.0000
  C   C143      1.0  0.91732  0.40946  0.40101  1.0000
  C   C144      1.0  0.94161  0.43975  0.40894  1.0000
  C   C145      1.0  0.94190  0.59169  0.40309  1.0000
  C   C146      1.0  0.91505  0.59329  0.39160  1.0000
  H   H79       1.0  0.90248  0.59176  0.44773  1.0000
  H   H80       1.0  0.94802  0.58891  0.46692  1.0000
  H   H81       1.0  0.94482  0.45094  0.46924  1.0000
  H   H82       1.0  0.90382  0.39927  0.45635  1.0000
  H   H83       1.0  0.13189  0.53950  0.46691  1.0000
  H   H84       1.0  0.17731  0.53641  0.44784  1.0000
  H   H85       1.0  0.17661  0.72947  0.45632  1.0000
  H   H86       1.0  0.13543  0.67790  0.46931  1.0000
  C   C147      1.0  0.41490  0.53723  0.40888  1.0000
  C   C148      1.0  0.38467  0.53141  0.40096  1.0000
  C   C149      1.0  0.56709  0.68887  0.40298  1.0000
  C   C150      1.0  0.56878  0.71737  0.39152  1.0000
  C   C151      1.0  0.69449  0.59546  0.40088  1.0000
  C   C152      1.0  0.66420  0.58946  0.40878  1.0000
  C   C153      1.0  0.51227  0.43784  0.40293  1.0000
  C   C154      1.0  0.51065  0.40937  0.39146  1.0000
  H   H87       1.0  0.51215  0.39833  0.44761  1.0000
  H   H88       1.0  0.51501  0.44673  0.46677  1.0000
  H   H89       1.0  0.65299  0.58144  0.46903  1.0000
  H   H90       1.0  0.70466  0.59213  0.45622  1.0000
  H   H91       1.0  0.56452  0.68007  0.46688  1.0000
  H   H92       1.0  0.56756  0.72855  0.44773  1.0000
  H   H93       1.0  0.37453  0.53479  0.45631  1.0000
  H   H94       1.0  0.42611  0.54520  0.46915  1.0000
  C   C155      1.0  0.56740  0.96560  0.40896  1.0000
  C   C156      1.0  0.57316  0.94115  0.40099  1.0000
  C   C157      1.0  0.41540  0.96566  0.40286  1.0000
  C   C158      1.0  0.38680  0.93896  0.39146  1.0000
  C   C159      1.0  0.50847  0.18654  0.40081  1.0000
  C   C160      1.0  0.51443  0.16223  0.40883  1.0000
  C   C161      1.0  0.66622  0.16220  0.40298  1.0000
  C   C162      1.0  0.69463  0.18909  0.39146  1.0000
  H   H95       1.0  0.70570  0.20162  0.44761  1.0000
  H   H96       1.0  0.65732  0.15606  0.46681  1.0000
  H   H97       1.0  0.52243  0.15905  0.46912  1.0000
  H   H98       1.0  0.51181  0.20007  0.45611  1.0000
  H   H99       1.0  0.42423  0.97188  0.46674  1.0000
  H   H100      1.0  0.37563  0.92657  0.44769  1.0000
  H   H101      1.0  0.56982  0.92767  0.45638  1.0000
  H   H102      1.0  0.55951  0.96891  0.46930  1.0000
  C   C163      1.0  0.24355  0.52725  0.34138  1.0000
  C   C164      1.0  0.26106  0.53397  0.42159  1.0000
  C   C165      1.0  0.28953  0.53501  0.42159  1.0000
  O   O13       1.0  0.30618  0.54268  0.49949  1.0000
  H   H103      1.0  0.30045  0.52338  0.53069  1.0000
  O   O14       1.0  0.25127  0.54084  0.49935  1.0000
  H   H104      1.0  0.23882  0.52137  0.53111  1.0000
  N   N19       1.0  0.21674  0.52656  0.34587  1.0000
  C   C166      1.0  0.57667  0.80387  0.34116  1.0000
  C   C167      1.0  0.56996  0.81469  0.42134  1.0000
  C   C168      1.0  0.56896  0.84215  0.42131  1.0000
  O   O15       1.0  0.56130  0.85116  0.49919  1.0000
  H   H105      1.0  0.58061  0.86472  0.53040  1.0000
  O   O16       1.0  0.56307  0.79805  0.49912  1.0000
  H   H106      1.0  0.58254  0.80508  0.53090  1.0000
  N   N20       1.0  0.57736  0.77776  0.34568  1.0000
  C   C169      1.0  0.30011  0.86046  0.34137  1.0000
  C   C170      1.0  0.28927  0.84296  0.42160  1.0000
  C   C171      1.0  0.26180  0.81451  0.42163  1.0000
  O   O17       1.0  0.25281  0.79789  0.49957  1.0000
  H   H107      1.0  0.23922  0.80361  0.53069  1.0000
  O   O18       1.0  0.30591  0.85275  0.49937  1.0000
  H   H108      1.0  0.29889  0.86520  0.53111  1.0000
  N   N21       1.0  0.32629  0.88723  0.34581  1.0000
  C   C172      1.0  0.83612  0.60066  0.34132  1.0000
  C   C173      1.0  0.81855  0.59378  0.42149  1.0000
  C   C174      1.0  0.78998  0.59254  0.42149  1.0000
  O   O19       1.0  0.77329  0.58473  0.49935  1.0000
  H   H109      1.0  0.77887  0.60398  0.53063  1.0000
  O   O20       1.0  0.82839  0.58697  0.49922  1.0000
  H   H110      1.0  0.84071  0.60645  0.53111  1.0000
  N   N22       1.0  0.86302  0.60155  0.34583  1.0000
  C   C175      1.0  0.50328  0.32303  0.34117  1.0000
  C   C176      1.0  0.51015  0.31233  0.42134  1.0000
  C   C177      1.0  0.51137  0.28500  0.42136  1.0000
  O   O21       1.0  0.51918  0.27614  0.49923  1.0000
  H   H111      1.0  0.49992  0.26251  0.53058  1.0000
  O   O22       1.0  0.51696  0.32900  0.49906  1.0000
  H   H112      1.0  0.49748  0.32189  0.53090  1.0000
  N   N23       1.0  0.50241  0.34906  0.34569  1.0000
  C   C178      1.0  0.78094  0.26791  0.34122  1.0000
  C   C179      1.0  0.79160  0.28546  0.42141  1.0000
  C   C180      1.0  0.81891  0.31404  0.42143  1.0000
  O   O23       1.0  0.82776  0.33072  0.49930  1.0000
  H   H113      1.0  0.84141  0.32512  0.53064  1.0000
  O   O24       1.0  0.77492  0.27561  0.49912  1.0000
  H   H114      1.0  0.78204  0.26324  0.53093  1.0000
  N   N24       1.0  0.75493  0.24102  0.34566  1.0000
