data_image0
_chemical_formula_structural       C2NO2CHCOC3HNO2COC3HNO2COCHNC18H12NHNHNHNC18H12NHNHNHC3HNO2COC3HNO2COC2NO2CO
_chemical_formula_sum              "C60 N14 O18 H36"
_cell_length_a       32.5449
_cell_length_b       32.546
_cell_length_c       14.895
_cell_angle_alpha    90
_cell_angle_beta     90
_cell_angle_gamma    119.999

_space_group_name_H-M_alt    "P 1"
_space_group_IT_number       1

loop_
  _space_group_symop_operation_xyz
  'x, y, z'

loop_
  _atom_site_type_symbol
  _atom_site_label
  _atom_site_symmetry_multiplicity
  _atom_site_fract_x
  _atom_site_fract_y
  _atom_site_fract_z
  _atom_site_occupancy
  C   C1        1.0  0.05526  0.52554  0.32234  1.0000
  C   C2        1.0  0.02259  0.51638  0.25139  1.0000
  N   N1        1.0  0.03935  0.53025  0.16244  1.0000
  O   O1        1.0  0.02925  0.56021  0.13239  1.0000
  O   O2        1.0  0.02269  0.49524  0.11019  1.0000
  C   C3        1.0  0.03710  0.51227  0.41041  1.0000
  H   H1        1.0  0.05970  0.51706  0.46230  1.0000
  C   C4        1.0  0.10509  0.54631  0.30605  1.0000
  O   O3        1.0  0.11809  0.52928  0.23521  1.0000
  C   C5        1.0  0.48322  0.53144  0.32220  1.0000
  C   C6        1.0  0.49240  0.50793  0.25127  1.0000
  C   C7        1.0  0.51403  0.48045  0.27039  1.0000
  H   H2        1.0  0.51880  0.46261  0.21851  1.0000
  N   N2        1.0  0.47850  0.51078  0.16232  1.0000
  O   O4        1.0  0.44856  0.47071  0.13229  1.0000
  O   O5        1.0  0.51350  0.52915  0.11004  1.0000
  C   C8        1.0  0.46241  0.56045  0.30586  1.0000
  O   O6        1.0  0.47954  0.59055  0.23512  1.0000
  C   C9        1.0  0.47740  0.95355  0.32222  1.0000
  C   C10       1.0  0.50088  0.98623  0.25128  1.0000
  C   C11       1.0  0.52836  0.03535  0.27039  1.0000
  H   H3        1.0  0.54616  0.05796  0.21850  1.0000
  N   N3        1.0  0.49801  0.96949  0.16232  1.0000
  O   O7        1.0  0.53808  0.97963  0.13226  1.0000
  O   O8        1.0  0.47961  0.98610  0.11009  1.0000
  C   C12       1.0  0.44842  0.90373  0.30590  1.0000
  O   O9        1.0  0.41826  0.89075  0.23524  1.0000
  C   C13       1.0  0.97347  0.49479  0.27051  1.0000
  H   H4        1.0  0.95087  0.48999  0.21860  1.0000
  N   N4        1.0  0.33861  0.67020  0.32712  1.0000
  C   C14       1.0  0.36273  0.64429  0.33705  1.0000
  C   C15       1.0  0.28859  0.64609  0.33709  1.0000
  C   C16       1.0  0.36452  0.72022  0.33707  1.0000
  C   C17       1.0  0.38638  0.74867  0.26101  1.0000
  C   C18       1.0  0.41288  0.79844  0.26842  1.0000
  C   C19       1.0  0.41814  0.82124  0.35209  1.0000
  C   C20       1.0  0.39667  0.79232  0.42829  1.0000
  C   C21       1.0  0.36982  0.74258  0.42089  1.0000
  C   C22       1.0  0.36931  0.62241  0.26100  1.0000
  C   C23       1.0  0.39261  0.59595  0.26839  1.0000
  C   C24       1.0  0.41019  0.59073  0.35204  1.0000
  C   C25       1.0  0.40272  0.61217  0.42825  1.0000
  C   C26       1.0  0.37981  0.63900  0.42086  1.0000
  C   C27       1.0  0.26623  0.62901  0.42091  1.0000
  C   C28       1.0  0.21649  0.60611  0.42833  1.0000
  C   C29       1.0  0.18757  0.59867  0.35215  1.0000
  C   C30       1.0  0.21035  0.61625  0.26849  1.0000
  C   C31       1.0  0.26012  0.63951  0.26105  1.0000
  H   H5        1.0  0.39521  0.57913  0.21252  1.0000
  H   H6        1.0  0.35659  0.62523  0.19985  1.0000
  H   H7        1.0  0.37511  0.65416  0.47713  1.0000
  H   H8        1.0  0.41436  0.60860  0.49004  1.0000
  H   H9        1.0  0.38356  0.73314  0.19985  1.0000
  H   H10       1.0  0.42969  0.81785  0.21254  1.0000
  H   H11       1.0  0.28611  0.63370  0.47716  1.0000
  H   H12       1.0  0.20128  0.59445  0.49012  1.0000
  H   H13       1.0  0.19093  0.61360  0.21260  1.0000
  H   H14       1.0  0.27565  0.65221  0.19988  1.0000
  H   H15       1.0  0.35465  0.72271  0.47716  1.0000
  H   H16       1.0  0.40025  0.80753  0.49009  1.0000
  N   N5        1.0  0.43085  0.56303  0.36275  1.0000
  H   H17       1.0  0.42162  0.54329  0.41650  1.0000
  N   N6        1.0  0.44583  0.86959  0.36279  1.0000
  H   H18       1.0  0.46557  0.88010  0.41654  1.0000
  N   N7        1.0  0.13921  0.57796  0.36286  1.0000
  H   H19       1.0  0.12868  0.58718  0.41661  1.0000
  N   N8        1.0  0.67195  0.33686  0.35364  1.0000
  C   C32       1.0  0.64784  0.36278  0.34369  1.0000
  C   C33       1.0  0.72198  0.36097  0.34371  1.0000
  C   C34       1.0  0.64603  0.28684  0.34369  1.0000
  C   C35       1.0  0.62412  0.25838  0.41973  1.0000
  C   C36       1.0  0.59761  0.20861  0.41230  1.0000
  C   C37       1.0  0.59243  0.18582  0.32866  1.0000
  C   C38       1.0  0.61393  0.21473  0.25248  1.0000
  C   C39       1.0  0.64078  0.26448  0.25989  1.0000
  C   C40       1.0  0.64127  0.38466  0.41974  1.0000
  C   C41       1.0  0.61800  0.41116  0.41232  1.0000
  C   C42       1.0  0.60042  0.41637  0.32867  1.0000
  C   C43       1.0  0.60785  0.39490  0.25248  1.0000
  C   C44       1.0  0.63076  0.36805  0.25988  1.0000
  C   C45       1.0  0.74434  0.37806  0.25991  1.0000
  C   C46       1.0  0.79409  0.40097  0.25252  1.0000
  C   C47       1.0  0.82300  0.40842  0.32872  1.0000
  C   C48       1.0  0.80020  0.39081  0.41236  1.0000
  C   C49       1.0  0.75043  0.36754  0.41977  1.0000
  H   H20       1.0  0.61539  0.42796  0.46821  1.0000
  H   H21       1.0  0.65399  0.38185  0.48089  1.0000
  H   H22       1.0  0.63545  0.35287  0.20362  1.0000
  H   H23       1.0  0.59620  0.39845  0.19069  1.0000
  H   H24       1.0  0.62693  0.27392  0.48088  1.0000
  H   H25       1.0  0.58082  0.18920  0.46819  1.0000
  H   H26       1.0  0.72448  0.37338  0.20364  1.0000
  H   H27       1.0  0.80931  0.41265  0.19074  1.0000
  H   H28       1.0  0.81961  0.39343  0.46825  1.0000
  H   H29       1.0  0.73489  0.35480  0.48091  1.0000
  H   H30       1.0  0.65597  0.28435  0.20363  1.0000
  H   H31       1.0  0.61041  0.19952  0.19070  1.0000
  N   N9        1.0  0.57973  0.44404  0.31795  1.0000
  H   H32       1.0  0.58894  0.46377  0.26420  1.0000
  N   N10       1.0  0.56478  0.13746  0.31795  1.0000
  H   H33       1.0  0.54505  0.12694  0.26418  1.0000
  N   N11       1.0  0.87136  0.42910  0.31803  1.0000
  H   H34       1.0  0.88189  0.41989  0.26428  1.0000
  C   C50       1.0  0.52731  0.47557  0.35846  1.0000
  C   C51       1.0  0.51813  0.49907  0.42939  1.0000
  C   C52       1.0  0.49649  0.52655  0.41027  1.0000
  H   H35       1.0  0.49172  0.54439  0.46215  1.0000
  N   N12       1.0  0.53203  0.49623  0.51834  1.0000
  O   O10       1.0  0.56197  0.53630  0.54836  1.0000
  O   O11       1.0  0.49703  0.47785  0.57061  1.0000
  C   C53       1.0  0.54809  0.44653  0.37477  1.0000
  O   O12       1.0  0.53106  0.41650  0.44563  1.0000
  C   C54       1.0  0.53325  0.05351  0.35846  1.0000
  C   C55       1.0  0.50977  0.02083  0.42941  1.0000
  C   C56       1.0  0.48229  0.97171  0.41029  1.0000
  H   H36       1.0  0.46450  0.94910  0.46219  1.0000
  N   N13       1.0  0.51264  0.03757  0.51837  1.0000
  O   O13       1.0  0.47257  0.02743  0.54844  1.0000
  O   O14       1.0  0.53104  0.02095  0.57060  1.0000
  C   C57       1.0  0.56229  0.10333  0.37475  1.0000
  O   O15       1.0  0.59231  0.11636  0.44563  1.0000
  C   C58       1.0  0.95531  0.48151  0.35857  1.0000
  C   C59       1.0  0.98798  0.49067  0.42951  1.0000
  N   N14       1.0  0.97122  0.47679  0.51846  1.0000
  O   O16       1.0  0.98133  0.44683  0.54851  1.0000
  O   O17       1.0  0.98787  0.51180  0.57072  1.0000
  C   C60       1.0  0.90548  0.46073  0.37486  1.0000
  O   O18       1.0  0.89247  0.47777  0.44571  1.0000
