data_image0
_chemical_formula_structural       C4OC4OH4N2C4OC4OH4N2C4OC4OH4N2C3H2CHC3H2CHC3H2CHC3H2CHC3H2CHC3H2CHC2HC2HN2C2HC2HN2C2HC2HN2C3NC2NHOHCHC3NC2NHOHCHC3NC2NHOHCHC3NC2NHOHCHC3NC2NHOHCHC3NC2NHOHCH
_chemical_formula_sum              "C96 O12 H54 N24"
_cell_length_a       31.8915
_cell_length_b       31.8915
_cell_length_c       15.0592
_cell_angle_alpha    90
_cell_angle_beta     90
_cell_angle_gamma    120

_space_group_name_H-M_alt    "P 1"
_space_group_IT_number       1

loop_
  _space_group_symop_operation_xyz
  'x, y, z'

loop_
  _atom_site_type_symbol
  _atom_site_label
  _atom_site_symmetry_multiplicity
  _atom_site_fract_x
  _atom_site_fract_y
  _atom_site_fract_z
  _atom_site_occupancy
  C   C1        1.0  0.97124  0.48389  0.31774  1.0000
  C   C2        1.0  0.86793  0.42751  0.32254  1.0000
  C   C3        1.0  0.89602  0.40456  0.32866  1.0000
  C   C4        1.0  0.94664  0.43321  0.33471  1.0000
  O   O1        1.0  0.81857  0.40099  0.32340  1.0000
  C   C5        1.0  0.02289  0.51232  0.31768  1.0000
  C   C6        1.0  0.04749  0.56300  0.33464  1.0000
  C   C7        1.0  0.09812  0.59164  0.32864  1.0000
  C   C8        1.0  0.12619  0.56869  0.32245  1.0000
  O   O2        1.0  0.17556  0.59519  0.32337  1.0000
  H   H1        1.0  0.80888  0.38793  0.38383  1.0000
  H   H2        1.0  0.18522  0.60823  0.38382  1.0000
  H   H3        1.0  0.96531  0.41565  0.34827  1.0000
  H   H4        1.0  0.02883  0.58054  0.34834  1.0000
  N   N1        1.0  0.11880  0.64029  0.33590  1.0000
  N   N2        1.0  0.87535  0.35591  0.33588  1.0000
  C   C9        1.0  0.51121  0.48637  0.31773  1.0000
  C   C10       1.0  0.56761  0.43946  0.32258  1.0000
  C   C11       1.0  0.59054  0.49050  0.32871  1.0000
  C   C12       1.0  0.56188  0.51246  0.33473  1.0000
  O   O3        1.0  0.59413  0.41663  0.32346  1.0000
  C   C13       1.0  0.48276  0.50957  0.31764  1.0000
  C   C14       1.0  0.43208  0.48349  0.33461  1.0000
  C   C15       1.0  0.40343  0.50545  0.32859  1.0000
  C   C16       1.0  0.42638  0.55649  0.32236  1.0000
  O   O4        1.0  0.39986  0.57934  0.32327  1.0000
  H   H5        1.0  0.60718  0.42000  0.38389  1.0000
  H   H6        1.0  0.38684  0.57599  0.38373  1.0000
  H   H7        1.0  0.57943  0.54868  0.34828  1.0000
  H   H8        1.0  0.41455  0.44729  0.34834  1.0000
  N   N3        1.0  0.35478  0.47748  0.33588  1.0000
  N   N4        1.0  0.63919  0.51849  0.33595  1.0000
  C   C17       1.0  0.50871  0.02385  0.31777  1.0000
  C   C18       1.0  0.55562  0.12716  0.32261  1.0000
  C   C19       1.0  0.50458  0.09906  0.32874  1.0000
  C   C20       1.0  0.48262  0.04843  0.33477  1.0000
  O   O5        1.0  0.57845  0.17652  0.32348  1.0000
  C   C21       1.0  0.48552  0.97221  0.31769  1.0000
  C   C22       1.0  0.51161  0.94762  0.33467  1.0000
  C   C23       1.0  0.48966  0.89701  0.32862  1.0000
  C   C24       1.0  0.43863  0.86891  0.32239  1.0000
  O   O6        1.0  0.41579  0.81955  0.32327  1.0000
  H   H9        1.0  0.57508  0.18619  0.38393  1.0000
  H   H10       1.0  0.41915  0.80987  0.38371  1.0000
  H   H11       1.0  0.44640  0.02976  0.34832  1.0000
  H   H12       1.0  0.54781  0.96630  0.34841  1.0000
  N   N5        1.0  0.51763  0.87633  0.33594  1.0000
  N   N6        1.0  0.47660  0.11973  0.33600  1.0000
  C   C25       1.0  0.27608  0.47164  0.31235  1.0000
  C   C26       1.0  0.24310  0.46866  0.24668  1.0000
  C   C27       1.0  0.20173  0.47115  0.26880  1.0000
  H   H13       1.0  0.18169  0.47309  0.21744  1.0000
  H   H14       1.0  0.25020  0.46715  0.18072  1.0000
  C   C28       1.0  0.32218  0.48128  0.28424  1.0000
  H   H15       1.0  0.33358  0.49608  0.22225  1.0000
  C   C29       1.0  0.52336  0.80340  0.31223  1.0000
  C   C30       1.0  0.52646  0.77350  0.24653  1.0000
  C   C31       1.0  0.52373  0.72954  0.26861  1.0000
  H   H16       1.0  0.52207  0.70761  0.21737  1.0000
  H   H17       1.0  0.52807  0.78218  0.18059  1.0000
  C   C32       1.0  0.51388  0.84000  0.28418  1.0000
  H   H18       1.0  0.49915  0.83666  0.22215  1.0000
  C   C33       1.0  0.19167  0.71899  0.31232  1.0000
  C   C34       1.0  0.22167  0.75195  0.24661  1.0000
  C   C35       1.0  0.26551  0.79335  0.26866  1.0000
  H   H19       1.0  0.28757  0.81339  0.21738  1.0000
  H   H20       1.0  0.21305  0.74483  0.18067  1.0000
  C   C36       1.0  0.15520  0.67288  0.28424  1.0000
  H   H21       1.0  0.15859  0.66147  0.22226  1.0000
  C   C37       1.0  0.71791  0.52437  0.31243  1.0000
  C   C38       1.0  0.75090  0.52736  0.24676  1.0000
  C   C39       1.0  0.79229  0.52493  0.26889  1.0000
  H   H22       1.0  0.81233  0.52299  0.21752  1.0000
  H   H23       1.0  0.74379  0.52885  0.18080  1.0000
  C   C40       1.0  0.67179  0.51468  0.28433  1.0000
  H   H24       1.0  0.66039  0.49986  0.22236  1.0000
  C   C41       1.0  0.47078  0.19261  0.31236  1.0000
  C   C42       1.0  0.46769  0.22253  0.24669  1.0000
  C   C43       1.0  0.47008  0.26635  0.26877  1.0000
  H   H25       1.0  0.47203  0.28839  0.21752  1.0000
  H   H26       1.0  0.46619  0.21392  0.18074  1.0000
  C   C44       1.0  0.48041  0.15612  0.28435  1.0000
  H   H27       1.0  0.49517  0.15948  0.22234  1.0000
  C   C45       1.0  0.80250  0.27720  0.31236  1.0000
  C   C46       1.0  0.77250  0.24422  0.24669  1.0000
  C   C47       1.0  0.72866  0.20282  0.26882  1.0000
  H   H28       1.0  0.70668  0.18278  0.21746  1.0000
  H   H29       1.0  0.78109  0.25133  0.18073  1.0000
  C   C48       1.0  0.83894  0.32332  0.28426  1.0000
  H   H30       1.0  0.83551  0.33472  0.22230  1.0000
  C   C49       1.0  0.94165  0.50491  0.30271  1.0000
  C   C50       1.0  0.89105  0.47831  0.31277  1.0000
  H   H31       1.0  0.95676  0.54101  0.28937  1.0000
  C   C51       1.0  0.10307  0.51789  0.31258  1.0000
  C   C52       1.0  0.05247  0.49130  0.30245  1.0000
  H   H32       1.0  0.03734  0.45518  0.28929  1.0000
  N   N7        1.0  0.12654  0.49237  0.31668  1.0000
  N   N8        1.0  0.86755  0.50380  0.31682  1.0000
  C   C53       1.0  0.49020  0.43576  0.30269  1.0000
  C   C54       1.0  0.51680  0.41176  0.31277  1.0000
  H   H33       1.0  0.45410  0.41477  0.28933  1.0000
  C   C55       1.0  0.47718  0.58417  0.31247  1.0000
  C   C56       1.0  0.50377  0.56017  0.30237  1.0000
  H   H34       1.0  0.53989  0.58116  0.28919  1.0000
  N   N9        1.0  0.50267  0.63316  0.31653  1.0000
  N   N10       1.0  0.49131  0.36277  0.31680  1.0000
  C   C57       1.0  0.55933  0.05346  0.30271  1.0000
  C   C58       1.0  0.58332  0.10406  0.31279  1.0000
  H   H35       1.0  0.58032  0.03835  0.28935  1.0000
  C   C59       1.0  0.41093  0.89201  0.31252  1.0000
  C   C60       1.0  0.43492  0.94261  0.30243  1.0000
  H   H36       1.0  0.41392  0.95773  0.28928  1.0000
  N   N11       1.0  0.36194  0.86851  0.31660  1.0000
  N   N12       1.0  0.63231  0.12757  0.31681  1.0000
  C   C61       1.0  0.19471  0.48171  0.35686  1.0000
  C   C62       1.0  0.22492  0.48055  0.42557  1.0000
  C   C63       1.0  0.26476  0.47406  0.40267  1.0000
  N   N13       1.0  0.29417  0.47527  0.46932  1.0000
  C   C64       1.0  0.28708  0.48055  0.55610  1.0000
  C   C65       1.0  0.24736  0.48568  0.57937  1.0000
  N   N14       1.0  0.21784  0.48559  0.51411  1.0000
  H   H37       1.0  0.31038  0.48089  0.60304  1.0000
  O   O7        1.0  0.23899  0.49081  0.66568  1.0000
  H   H38       1.0  0.19004  0.48804  0.53323  1.0000
  C   C66       1.0  0.16420  0.50128  0.37017  1.0000
  H   H39       1.0  0.16999  0.52292  0.42423  1.0000
  C   C67       1.0  0.51322  0.71195  0.35666  1.0000
  C   C68       1.0  0.51440  0.74331  0.42542  1.0000
  C   C69       1.0  0.52091  0.78966  0.40256  1.0000
  N   N15       1.0  0.51972  0.81786  0.46924  1.0000
  C   C70       1.0  0.51446  0.80548  0.55601  1.0000
  C   C71       1.0  0.50934  0.76063  0.57926  1.0000
  N   N16       1.0  0.50939  0.73119  0.51395  1.0000
  H   H40       1.0  0.51415  0.82844  0.60297  1.0000
  O   O8        1.0  0.50426  0.74713  0.66556  1.0000
  H   H41       1.0  0.50699  0.70096  0.53308  1.0000
  C   C72       1.0  0.49377  0.66190  0.37007  1.0000
  H   H42       1.0  0.47217  0.64603  0.42418  1.0000
  C   C73       1.0  0.28311  0.80033  0.35672  1.0000
  C   C74       1.0  0.25176  0.77015  0.42549  1.0000
  C   C75       1.0  0.20542  0.73032  0.40263  1.0000
  N   N17       1.0  0.17721  0.70093  0.46930  1.0000
  C   C76       1.0  0.18960  0.70805  0.55607  1.0000
  C   C77       1.0  0.23446  0.74776  0.57931  1.0000
  N   N18       1.0  0.26391  0.77724  0.51401  1.0000
  H   H43       1.0  0.16665  0.68478  0.60304  1.0000
  O   O9        1.0  0.24798  0.75616  0.66561  1.0000
  H   H44       1.0  0.29415  0.80506  0.53312  1.0000
  C   C78       1.0  0.33319  0.83082  0.37002  1.0000
  H   H45       1.0  0.34904  0.82503  0.42408  1.0000
  C   C79       1.0  0.79934  0.51440  0.35695  1.0000
  C   C80       1.0  0.76911  0.51554  0.42565  1.0000
  C   C81       1.0  0.72924  0.52199  0.40276  1.0000
  N   N19       1.0  0.69983  0.52077  0.46940  1.0000
  C   C82       1.0  0.70694  0.51552  0.55619  1.0000
  C   C83       1.0  0.74668  0.51043  0.57946  1.0000
  N   N20       1.0  0.77620  0.51051  0.51419  1.0000
  H   H46       1.0  0.68364  0.51518  0.60313  1.0000
  O   O10       1.0  0.75509  0.50534  0.66577  1.0000
  H   H47       1.0  0.80404  0.50812  0.53332  1.0000
  C   C84       1.0  0.82987  0.49487  0.37027  1.0000
  H   H48       1.0  0.82409  0.47323  0.42435  1.0000
  C   C85       1.0  0.48074  0.28396  0.35681  1.0000
  C   C86       1.0  0.47958  0.25261  0.42557  1.0000
  C   C87       1.0  0.47311  0.20629  0.40271  1.0000
  N   N21       1.0  0.47435  0.17811  0.46938  1.0000
  C   C88       1.0  0.47959  0.19048  0.55615  1.0000
  C   C89       1.0  0.48467  0.23531  0.57940  1.0000
  N   N22       1.0  0.48459  0.26474  0.51411  1.0000
  H   H49       1.0  0.47994  0.16754  0.60311  1.0000
  O   O11       1.0  0.48976  0.24881  0.66571  1.0000
  H   H50       1.0  0.48697  0.29496  0.53323  1.0000
  C   C90       1.0  0.50024  0.33402  0.37023  1.0000
  H   H51       1.0  0.52190  0.34988  0.42429  1.0000
  C   C91       1.0  0.71112  0.19580  0.35690  1.0000
  C   C92       1.0  0.74248  0.22601  0.42562  1.0000
  C   C93       1.0  0.78879  0.26587  0.40269  1.0000
  N   N23       1.0  0.81700  0.29528  0.46934  1.0000
  C   C94       1.0  0.80465  0.28817  0.55613  1.0000
  C   C95       1.0  0.75982  0.24843  0.57942  1.0000
  N   N24       1.0  0.73038  0.21890  0.51417  1.0000
  H   H52       1.0  0.82761  0.31148  0.60306  1.0000
  O   O12       1.0  0.74633  0.24005  0.66574  1.0000
  H   H53       1.0  0.70014  0.19109  0.53330  1.0000
  C   C96       1.0  0.66105  0.16524  0.37026  1.0000
  H   H54       1.0  0.64520  0.17102  0.42435  1.0000
