data_image0
_chemical_formula_structural       CNHC3NCH3C3NCH3C3NCH3CNHCNHCNHCNHC3NCH3C3NCH3CNHC3NCH3C3NCH3C3NCH3CNHCNHCNHCNHC3NCH3C3NCH3CNHCNHC3NCH3C3NCH3CNHCNHC3NCH3C3NCH3CNHCNHC3NCH3C3NCH3CNHCNHC3NCH3C3NCH3C6H3C6H3C6H3C6H3C6H3C6H3C6H3C6H3C6H3C6H3C6H3C6H3C6H3C6H3C6H3C6H3C6H3C6H3C6H3C6H3C6H3C6H3C6H3C6H3C3NCH3CNHCNHCNHC3NCH3C3NCH3C3NCH3C3NCH3CNHCNHC3NCH3CNHCNHCNHC3NCH3C3NCH3C3NCH3C3NCH3CNHCNHC3NCH3C3NCH3CNHCNHC3NCH3C3NCH3CNHCNHC3NCH3C3NCH3CNHCNHC3NCH3C3NCH3CNHCNH
_chemical_formula_sum              "C324 N72 H216"
_cell_length_a       42.4859
_cell_length_b       54.0207
_cell_length_c       14.859
_cell_angle_alpha    90
_cell_angle_beta     90
_cell_angle_gamma    90

_space_group_name_H-M_alt    "P 1"
_space_group_IT_number       1

loop_
  _space_group_symop_operation_xyz
  'x, y, z'

loop_
  _atom_site_type_symbol
  _atom_site_label
  _atom_site_symmetry_multiplicity
  _atom_site_fract_x
  _atom_site_fract_y
  _atom_site_fract_z
  _atom_site_occupancy
  C   C1        1.0  0.51258  0.02416  0.29643  1.0000
  N   N1        1.0  0.53080  0.00349  0.29602  1.0000
  H   H1        1.0  0.51863  0.03812  0.25336  1.0000
  C   C2        1.0  0.02986  0.50527  0.27700  1.0000
  C   C3        1.0  0.02382  0.52620  0.33302  1.0000
  C   C4        1.0  0.98519  0.48353  0.33742  1.0000
  N   N2        1.0  0.01072  0.48507  0.28261  1.0000
  C   C5        1.0  0.05439  0.50370  0.20636  1.0000
  H   H2        1.0  0.06462  0.52163  0.18997  1.0000
  H   H3        1.0  0.04421  0.49638  0.14436  1.0000
  H   H4        1.0  0.07306  0.49124  0.22854  1.0000
  C   C6        1.0  0.33554  0.08506  0.25859  1.0000
  C   C7        1.0  0.31538  0.07393  0.32380  1.0000
  C   C8        1.0  0.38130  0.06832  0.33097  1.0000
  N   N3        1.0  0.36722  0.08219  0.26632  1.0000
  C   C9        1.0  0.32519  0.09976  0.17980  1.0000
  H   H5        1.0  0.29984  0.09892  0.16896  1.0000
  H   H6        1.0  0.33646  0.09267  0.11902  1.0000
  H   H7        1.0  0.33207  0.11907  0.18891  1.0000
  C   C10       1.0  0.67418  0.92512  0.25567  1.0000
  C   C11       1.0  0.69444  0.93631  0.32048  1.0000
  C   C12       1.0  0.62854  0.94194  0.32837  1.0000
  N   N4        1.0  0.64252  0.92800  0.26377  1.0000
  C   C13       1.0  0.68442  0.91031  0.17700  1.0000
  H   H8        1.0  0.70974  0.91114  0.16582  1.0000
  H   H9        1.0  0.67305  0.91731  0.11625  1.0000
  H   H10       1.0  0.67756  0.89101  0.18654  1.0000
  C   C14       1.0  0.17905  0.55884  0.29668  1.0000
  N   N5        1.0  0.14710  0.55672  0.29410  1.0000
  H   H11       1.0  0.19178  0.55062  0.24655  1.0000
  C   C15       1.0  0.83001  0.45147  0.30011  1.0000
  N   N6        1.0  0.86195  0.45361  0.29714  1.0000
  H   H12       1.0  0.81720  0.45978  0.25034  1.0000
  C   C16       1.0  0.46780  0.13596  0.28154  1.0000
  N   N7        1.0  0.47944  0.15930  0.28096  1.0000
  H   H13       1.0  0.45115  0.13164  0.23442  1.0000
  C   C17       1.0  0.54202  0.87409  0.28250  1.0000
  N   N8        1.0  0.53023  0.85079  0.28241  1.0000
  H   H14       1.0  0.55865  0.87829  0.23518  1.0000
  C   C18       1.0  0.00820  0.62658  0.27794  1.0000
  C   C19       1.0  0.03178  0.61832  0.33943  1.0000
  C   C20       1.0  0.00754  0.66684  0.34620  1.0000
  N   N9        1.0  0.99724  0.65027  0.28414  1.0000
  C   C21       1.0  0.99604  0.61246  0.19989  1.0000
  H   H15       1.0  0.00952  0.59576  0.18599  1.0000
  H   H16       1.0  0.99705  0.62391  0.13940  1.0000
  H   H17       1.0  0.97157  0.60734  0.21224  1.0000
  C   C22       1.0  0.00088  0.38377  0.27702  1.0000
  C   C23       1.0  0.97732  0.39188  0.33887  1.0000
  C   C24       1.0  0.00178  0.34343  0.34445  1.0000
  N   N10       1.0  0.01198  0.36012  0.28267  1.0000
  C   C25       1.0  0.01301  0.39812  0.19947  1.0000
  H   H18       1.0  0.99963  0.41492  0.18646  1.0000
  H   H19       1.0  0.01183  0.38687  0.13851  1.0000
  H   H20       1.0  0.03753  0.40311  0.21172  1.0000
  C   C26       1.0  0.48350  0.51657  0.29321  1.0000
  N   N11       1.0  0.51412  0.52376  0.29110  1.0000
  H   H21       1.0  0.46820  0.52521  0.25042  1.0000
  C   C27       1.0  0.01253  0.98649  0.27947  1.0000
  C   C28       1.0  0.03633  0.99727  0.33496  1.0000
  C   C29       1.0  0.97284  0.01283  0.34329  1.0000
  N   N12       1.0  0.98221  0.99452  0.28672  1.0000
  C   C30       1.0  0.01786  0.96802  0.20734  1.0000
  H   H22       1.0  0.04266  0.96570  0.19084  1.0000
  H   H23       1.0  0.00598  0.97391  0.14579  1.0000
  H   H24       1.0  0.00820  0.95019  0.22805  1.0000
  C   C31       1.0  0.41161  0.41207  0.26953  1.0000
  C   C32       1.0  0.39576  0.42872  0.32871  1.0000
  C   C33       1.0  0.38481  0.37727  0.33430  1.0000
  N   N13       1.0  0.40576  0.38736  0.27591  1.0000
  C   C34       1.0  0.43328  0.41913  0.19575  1.0000
  H   H25       1.0  0.43284  0.43889  0.18127  1.0000
  H   H26       1.0  0.42658  0.40957  0.13393  1.0000
  H   H27       1.0  0.45726  0.41374  0.21341  1.0000
  C   C35       1.0  0.59785  0.59822  0.26769  1.0000
  C   C36       1.0  0.61339  0.58157  0.32755  1.0000
  C   C37       1.0  0.62450  0.63299  0.33315  1.0000
  N   N14       1.0  0.60377  0.62292  0.27406  1.0000
  C   C38       1.0  0.57657  0.59118  0.19296  1.0000
  H   H28       1.0  0.57712  0.57143  0.17832  1.0000
  H   H29       1.0  0.58357  0.60078  0.13148  1.0000
  H   H30       1.0  0.55250  0.59653  0.20967  1.0000
  C   C39       1.0  0.13593  0.91778  0.29778  1.0000
  N   N15       1.0  0.14075  0.89293  0.29660  1.0000
  H   H31       1.0  0.14805  0.92827  0.25224  1.0000
  C   C40       1.0  0.87419  0.09251  0.29802  1.0000
  N   N16       1.0  0.86925  0.11734  0.29693  1.0000
  H   H32       1.0  0.86229  0.08202  0.25199  1.0000
  C   C41       1.0  0.33184  0.51354  0.29102  1.0000
  N   N17       1.0  0.30790  0.53025  0.29077  1.0000
  H   H33       1.0  0.33093  0.49955  0.24482  1.0000
  C   C42       1.0  0.67777  0.49683  0.29334  1.0000
  N   N18       1.0  0.70165  0.48007  0.29389  1.0000
  H   H34       1.0  0.67896  0.51084  0.24727  1.0000
  C   C43       1.0  0.15308  0.03631  0.27456  1.0000
  C   C44       1.0  0.15168  0.01580  0.33498  1.0000
  C   C45       1.0  0.20196  0.05007  0.33875  1.0000
  N   N19       1.0  0.17762  0.05246  0.28016  1.0000
  C   C46       1.0  0.13100  0.04124  0.19948  1.0000
  H   H35       1.0  0.11631  0.02533  0.18335  1.0000
  H   H36       1.0  0.14413  0.04586  0.13858  1.0000
  H   H37       1.0  0.11592  0.05689  0.21683  1.0000
  C   C47       1.0  0.85705  0.97395  0.27381  1.0000
  C   C48       1.0  0.85804  0.99453  0.33395  1.0000
  C   C49       1.0  0.80783  0.96019  0.33594  1.0000
  N   N20       1.0  0.83252  0.95776  0.27854  1.0000
  C   C50       1.0  0.87964  0.96893  0.20004  1.0000
  H   H38       1.0  0.89458  0.98477  0.18486  1.0000
  H   H39       1.0  0.86689  0.96441  0.13837  1.0000
  H   H40       1.0  0.89445  0.95320  0.21819  1.0000
  C   C51       1.0  0.24188  0.17881  0.28863  1.0000
  N   N21       1.0  0.24830  0.15424  0.28685  1.0000
  H   H41       1.0  0.25396  0.18995  0.24504  1.0000
  C   C52       1.0  0.76778  0.83138  0.28645  1.0000
  N   N22       1.0  0.76149  0.85596  0.28412  1.0000
  H   H42       1.0  0.75574  0.82021  0.24289  1.0000
  C   C53       1.0  0.30564  0.67126  0.27991  1.0000
  C   C54       1.0  0.29015  0.68873  0.33674  1.0000
  C   C55       1.0  0.27636  0.63778  0.34510  1.0000
  N   N23       1.0  0.29823  0.64677  0.28703  1.0000
  C   C56       1.0  0.32784  0.67730  0.20625  1.0000
  H   H43       1.0  0.32856  0.69698  0.19054  1.0000
  H   H44       1.0  0.32081  0.66769  0.14481  1.0000
  H   H45       1.0  0.35145  0.67120  0.22484  1.0000
  C   C57       1.0  0.70389  0.33898  0.28154  1.0000
  C   C58       1.0  0.71933  0.32147  0.33835  1.0000
  C   C59       1.0  0.73286  0.37245  0.34788  1.0000
  N   N24       1.0  0.71118  0.36348  0.28923  1.0000
  C   C60       1.0  0.68188  0.33298  0.20737  1.0000
  H   H46       1.0  0.68127  0.31332  0.19136  1.0000
  H   H47       1.0  0.68902  0.34267  0.14622  1.0000
  H   H48       1.0  0.65820  0.33901  0.22560  1.0000
  C   C61       1.0  0.26616  0.29273  0.29633  1.0000
  N   N25       1.0  0.29284  0.30657  0.29516  1.0000
  H   H49       1.0  0.25028  0.29523  0.24543  1.0000
  C   C62       1.0  0.74330  0.71743  0.29544  1.0000
  N   N26       1.0  0.71659  0.70361  0.29425  1.0000
  H   H50       1.0  0.75916  0.71493  0.24451  1.0000
  C   C63       1.0  0.22405  0.77167  0.25696  1.0000
  C   C64       1.0  0.24785  0.77397  0.32387  1.0000
  C   C65       1.0  0.19381  0.80361  0.32761  1.0000
  N   N27       1.0  0.19800  0.78612  0.26318  1.0000
  C   C66       1.0  0.22486  0.75489  0.17812  1.0000
  H   H51       1.0  0.24777  0.74623  0.16833  1.0000
  H   H52       1.0  0.21954  0.76533  0.11711  1.0000
  H   H53       1.0  0.20716  0.74042  0.18634  1.0000
  C   C67       1.0  0.78556  0.23861  0.25822  1.0000
  C   C68       1.0  0.76172  0.23626  0.32500  1.0000
  C   C69       1.0  0.81577  0.20661  0.32874  1.0000
  N   N28       1.0  0.81161  0.22415  0.26445  1.0000
  C   C70       1.0  0.78481  0.25545  0.17957  1.0000
  H   H54       1.0  0.76192  0.26413  0.16975  1.0000
  H   H55       1.0  0.79016  0.24505  0.11847  1.0000
  H   H56       1.0  0.80251  0.26991  0.18803  1.0000
  C   C71       1.0  0.45082  0.25530  0.27894  1.0000
  N   N29       1.0  0.42867  0.27328  0.27494  1.0000
  H   H57       1.0  0.44998  0.24155  0.23173  1.0000
  C   C72       1.0  0.55856  0.75504  0.27970  1.0000
  N   N30       1.0  0.58069  0.73706  0.27519  1.0000
  H   H58       1.0  0.55939  0.76888  0.23282  1.0000
  C   C73       1.0  0.03632  0.77567  0.27678  1.0000
  C   C74       1.0  0.03533  0.75548  0.33868  1.0000
  C   C75       1.0  0.08101  0.79267  0.35244  1.0000
  N   N31       1.0  0.05908  0.79323  0.28619  1.0000
  C   C76       1.0  0.01618  0.77856  0.19605  1.0000
  H   H59       1.0  0.00197  0.76224  0.18183  1.0000
  H   H60       1.0  0.03089  0.78188  0.13702  1.0000
  H   H61       1.0  0.00057  0.79440  0.20528  1.0000
  C   C77       1.0  0.97323  0.23446  0.27653  1.0000
  C   C78       1.0  0.97425  0.25475  0.33793  1.0000
  C   C79       1.0  0.92858  0.21758  0.35282  1.0000
  N   N32       1.0  0.95047  0.21691  0.28648  1.0000
  C   C80       1.0  0.99333  0.23142  0.19578  1.0000
  H   H62       1.0  0.00752  0.24771  0.18110  1.0000
  H   H63       1.0  0.97859  0.22799  0.13689  1.0000
  H   H64       1.0  0.00895  0.21560  0.20533  1.0000
  C   C81       1.0  0.12513  0.25253  0.28059  1.0000
  N   N33       1.0  0.09542  0.26152  0.27701  1.0000
  H   H65       1.0  0.13142  0.23936  0.23454  1.0000
  C   C82       1.0  0.88442  0.75769  0.28102  1.0000
  N   N34       1.0  0.91417  0.74876  0.27803  1.0000
  H   H66       1.0  0.87819  0.77082  0.23475  1.0000
  C   C83       1.0  0.37416  0.77953  0.27907  1.0000
  C   C84       1.0  0.36278  0.76101  0.33938  1.0000
  C   C85       1.0  0.42433  0.77948  0.35206  1.0000
  N   N35       1.0  0.40423  0.78789  0.28811  1.0000
  C   C86       1.0  0.35711  0.78944  0.19985  1.0000
  H   H67       1.0  0.33589  0.77902  0.18387  1.0000
  H   H68       1.0  0.37227  0.78866  0.14056  1.0000
  H   H69       1.0  0.35072  0.80871  0.21226  1.0000
  C   C87       1.0  0.63546  0.23073  0.27863  1.0000
  C   C88       1.0  0.64675  0.24921  0.33925  1.0000
  C   C89       1.0  0.58513  0.23084  0.35075  1.0000
  N   N36       1.0  0.60534  0.22242  0.28713  1.0000
  C   C90       1.0  0.65264  0.22082  0.19966  1.0000
  H   H70       1.0  0.67391  0.23122  0.18404  1.0000
  H   H71       1.0  0.63761  0.22162  0.14013  1.0000
  H   H72       1.0  0.65898  0.20155  0.21213  1.0000
  C   C91       1.0  0.46318  0.09427  0.34707  1.0000
  C   C92       1.0  0.43003  0.09212  0.34165  1.0000
  C   C93       1.0  0.41463  0.06893  0.33937  1.0000
  C   C94       1.0  0.43326  0.04726  0.34367  1.0000
  C   C95       1.0  0.46663  0.04831  0.34986  1.0000
  C   C96       1.0  0.48093  0.07208  0.34963  1.0000
  H   H73       1.0  0.42232  0.03042  0.33931  1.0000
  H   H74       1.0  0.50495  0.07335  0.35212  1.0000
  H   H75       1.0  0.41665  0.10791  0.34076  1.0000
  C   C97       1.0  0.54672  0.91591  0.34679  1.0000
  C   C98       1.0  0.57986  0.91812  0.34060  1.0000
  C   C99       1.0  0.59522  0.94133  0.33713  1.0000
  C   C100      1.0  0.57657  0.96302  0.34051  1.0000
  C   C101      1.0  0.54325  0.96174  0.34608  1.0000
  C   C102      1.0  0.52888  0.93806  0.34852  1.0000
  H   H76       1.0  0.58741  0.97994  0.33797  1.0000
  H   H77       1.0  0.50482  0.93686  0.34903  1.0000
  H   H78       1.0  0.59328  0.90234  0.34019  1.0000
  C   C103      1.0  0.04632  0.59427  0.33859  1.0000
  C   C104      1.0  0.07947  0.59212  0.34406  1.0000
  C   C105      1.0  0.09486  0.56894  0.34625  1.0000
  C   C106      1.0  0.07623  0.54726  0.34187  1.0000
  C   C107      1.0  0.04286  0.54831  0.33577  1.0000
  C   C108      1.0  0.02857  0.57209  0.33602  1.0000
  H   H79       1.0  0.08717  0.53042  0.34630  1.0000
  H   H80       1.0  0.00455  0.57336  0.33355  1.0000
  H   H81       1.0  0.09285  0.60791  0.34492  1.0000
  C   C109      1.0  0.96278  0.41592  0.33893  1.0000
  C   C110      1.0  0.92964  0.41812  0.34511  1.0000
  C   C111      1.0  0.91427  0.44133  0.34850  1.0000
  C   C112      1.0  0.93292  0.46303  0.34513  1.0000
  C   C113      1.0  0.96624  0.46175  0.33957  1.0000
  C   C114      1.0  0.98061  0.43807  0.33718  1.0000
  H   H82       1.0  0.92207  0.47994  0.34760  1.0000
  H   H83       1.0  0.00468  0.43688  0.33664  1.0000
  H   H84       1.0  0.91623  0.40234  0.34546  1.0000
  C   C115      1.0  0.44088  0.48911  0.34720  1.0000
  C   C116      1.0  0.43350  0.46364  0.33986  1.0000
  C   C117      1.0  0.40217  0.45482  0.33438  1.0000
  C   C118      1.0  0.37759  0.47249  0.33957  1.0000
  C   C119      1.0  0.38344  0.49827  0.34654  1.0000
  C   C120      1.0  0.41537  0.50606  0.34725  1.0000
  H   H85       1.0  0.35479  0.46639  0.33801  1.0000
  H   H86       1.0  0.42020  0.52460  0.34995  1.0000
  H   H87       1.0  0.45154  0.45110  0.33816  1.0000
  C   C121      1.0  0.56855  0.52103  0.34047  1.0000
  C   C122      1.0  0.57564  0.54656  0.33568  1.0000
  C   C123      1.0  0.60699  0.55545  0.33269  1.0000
  C   C124      1.0  0.63161  0.53782  0.33926  1.0000
  C   C125      1.0  0.62583  0.51201  0.34623  1.0000
  C   C126      1.0  0.59396  0.50411  0.34477  1.0000
  H   H88       1.0  0.65440  0.54397  0.33913  1.0000
  H   H89       1.0  0.58910  0.48555  0.34552  1.0000
  H   H90       1.0  0.55749  0.55904  0.33607  1.0000
  C   C127      1.0  0.06862  0.98912  0.33846  1.0000
  C   C128      1.0  0.07600  0.96364  0.34581  1.0000
  C   C129      1.0  0.10733  0.95483  0.35127  1.0000
  C   C130      1.0  0.13191  0.97251  0.34611  1.0000
  C   C131      1.0  0.12605  0.99829  0.33911  1.0000
  C   C132      1.0  0.09412  0.00607  0.33839  1.0000
  H   H91       1.0  0.15472  0.96641  0.34768  1.0000
  H   H92       1.0  0.08929  0.02461  0.33568  1.0000
  H   H93       1.0  0.05797  0.95110  0.34751  1.0000
  C   C133      1.0  0.94095  0.02102  0.34517  1.0000
  C   C134      1.0  0.93385  0.04656  0.34993  1.0000
  C   C135      1.0  0.90250  0.05545  0.35289  1.0000
  C   C136      1.0  0.87789  0.03781  0.34636  1.0000
  C   C137      1.0  0.88367  0.01201  0.33940  1.0000
  C   C138      1.0  0.91553  0.00410  0.34090  1.0000
  H   H94       1.0  0.85510  0.04396  0.34648  1.0000
  H   H95       1.0  0.92039  0.98554  0.34016  1.0000
  H   H96       1.0  0.95200  0.05903  0.34953  1.0000
  C   C139      1.0  0.24137  0.11232  0.33964  1.0000
  C   C140      1.0  0.27328  0.10508  0.33516  1.0000
  C   C141      1.0  0.28253  0.07989  0.33196  1.0000
  C   C142      1.0  0.25861  0.06162  0.33767  1.0000
  C   C143      1.0  0.22628  0.06817  0.34089  1.0000
  C   C144      1.0  0.21816  0.09361  0.34215  1.0000
  H   H97       1.0  0.26475  0.04331  0.33440  1.0000
  H   H98       1.0  0.19491  0.09863  0.34417  1.0000
  H   H99       1.0  0.29029  0.11854  0.33494  1.0000
  C   C145      1.0  0.76844  0.89792  0.33640  1.0000
  C   C146      1.0  0.73653  0.90516  0.33179  1.0000
  C   C147      1.0  0.72729  0.93035  0.32843  1.0000
  C   C148      1.0  0.75121  0.94862  0.33425  1.0000
  C   C149      1.0  0.78354  0.94206  0.33750  1.0000
  C   C150      1.0  0.79166  0.91663  0.33889  1.0000
  H   H100      1.0  0.74507  0.96693  0.33084  1.0000
  H   H101      1.0  0.81491  0.91160  0.34115  1.0000
  H   H102      1.0  0.71952  0.89171  0.33169  1.0000
  C   C151      1.0  0.26812  0.61230  0.34599  1.0000
  C   C152      1.0  0.23621  0.60506  0.35048  1.0000
  C   C153      1.0  0.22696  0.57987  0.35366  1.0000
  C   C154      1.0  0.25088  0.56159  0.34784  1.0000
  C   C155      1.0  0.28321  0.56816  0.34478  1.0000
  C   C156      1.0  0.29133  0.59359  0.34350  1.0000
  H   H103      1.0  0.24474  0.54329  0.35130  1.0000
  H   H104      1.0  0.31459  0.59861  0.34150  1.0000
  H   H105      1.0  0.21921  0.61852  0.35071  1.0000
  C   C157      1.0  0.74105  0.39793  0.34923  1.0000
  C   C158      1.0  0.77296  0.40517  0.35388  1.0000
  C   C159      1.0  0.78221  0.43035  0.35725  1.0000
  C   C160      1.0  0.75828  0.44863  0.35150  1.0000
  C   C161      1.0  0.72595  0.44207  0.34817  1.0000
  C   C162      1.0  0.71784  0.41664  0.34675  1.0000
  H   H106      1.0  0.76443  0.46693  0.35483  1.0000
  H   H107      1.0  0.69459  0.41161  0.34444  1.0000
  H   H108      1.0  0.78997  0.39172  0.35394  1.0000
  C   C163      1.0  0.40273  0.30913  0.33467  1.0000
  C   C164      1.0  0.37213  0.29931  0.34253  1.0000
  C   C165      1.0  0.34551  0.31483  0.34864  1.0000
  C   C166      1.0  0.34980  0.34078  0.34534  1.0000
  C   C167      1.0  0.38031  0.35122  0.33751  1.0000
  C   C168      1.0  0.40660  0.33509  0.33304  1.0000
  H   H109      1.0  0.33052  0.35212  0.34904  1.0000
  H   H110      1.0  0.42887  0.34226  0.32858  1.0000
  H   H111      1.0  0.36922  0.28046  0.34494  1.0000
  C   C169      1.0  0.60664  0.70112  0.33401  1.0000
  C   C170      1.0  0.63725  0.71092  0.34176  1.0000
  C   C171      1.0  0.66388  0.69539  0.34757  1.0000
  C   C172      1.0  0.65957  0.66945  0.34412  1.0000
  C   C173      1.0  0.62904  0.65903  0.33639  1.0000
  C   C174      1.0  0.60276  0.67516  0.33218  1.0000
  H   H112      1.0  0.67884  0.65809  0.34767  1.0000
  H   H113      1.0  0.58048  0.66799  0.32782  1.0000
  H   H114      1.0  0.64016  0.72977  0.34432  1.0000
  C   C175      1.0  0.10676  0.80914  0.35080  1.0000
  C   C176      1.0  0.13736  0.79932  0.34294  1.0000
  C   C177      1.0  0.16398  0.81484  0.33689  1.0000
  C   C178      1.0  0.15970  0.84079  0.34025  1.0000
  C   C179      1.0  0.12918  0.85123  0.34807  1.0000
  C   C180      1.0  0.10289  0.83510  0.35249  1.0000
  H   H115      1.0  0.17898  0.85213  0.33660  1.0000
  H   H116      1.0  0.08062  0.84227  0.35697  1.0000
  H   H117      1.0  0.14026  0.78047  0.34053  1.0000
  C   C181      1.0  0.90284  0.20111  0.35157  1.0000
  C   C182      1.0  0.87223  0.21091  0.34386  1.0000
  C   C183      1.0  0.84560  0.19538  0.33805  1.0000
  C   C184      1.0  0.84990  0.16944  0.34150  1.0000
  C   C185      1.0  0.88043  0.15902  0.34924  1.0000
  C   C186      1.0  0.90672  0.17515  0.35343  1.0000
  H   H118      1.0  0.83064  0.15808  0.33797  1.0000
  H   H119      1.0  0.92900  0.16798  0.35780  1.0000
  H   H120      1.0  0.86931  0.22976  0.34131  1.0000
  C   C187      1.0  0.21396  0.21500  0.34980  1.0000
  C   C188      1.0  0.23963  0.23168  0.35344  1.0000
  C   C189      1.0  0.23532  0.25765  0.35517  1.0000
  C   C190      1.0  0.20435  0.26699  0.34965  1.0000
  C   C191      1.0  0.17792  0.25108  0.34774  1.0000
  C   C192      1.0  0.18328  0.22518  0.34563  1.0000
  H   H121      1.0  0.20096  0.28577  0.34938  1.0000
  H   H122      1.0  0.16440  0.21344  0.34227  1.0000
  H   H123      1.0  0.26206  0.22477  0.35633  1.0000
  C   C193      1.0  0.79548  0.79521  0.34858  1.0000
  C   C194      1.0  0.76980  0.77854  0.35201  1.0000
  C   C195      1.0  0.77410  0.75257  0.35405  1.0000
  C   C196      1.0  0.80508  0.74322  0.34895  1.0000
  C   C197      1.0  0.83151  0.75912  0.34732  1.0000
  C   C198      1.0  0.82616  0.78502  0.34494  1.0000
  H   H124      1.0  0.80846  0.72444  0.34899  1.0000
  H   H125      1.0  0.84505  0.79676  0.34176  1.0000
  H   H126      1.0  0.74737  0.78546  0.35456  1.0000
  C   C199      1.0  0.29552  0.71498  0.33585  1.0000
  C   C200      1.0  0.26985  0.73167  0.33226  1.0000
  C   C201      1.0  0.27416  0.75763  0.33053  1.0000
  C   C202      1.0  0.30513  0.76697  0.33611  1.0000
  C   C203      1.0  0.33156  0.75107  0.33796  1.0000
  C   C204      1.0  0.32620  0.72516  0.34003  1.0000
  H   H127      1.0  0.30852  0.78575  0.33632  1.0000
  H   H128      1.0  0.34508  0.71342  0.34336  1.0000
  H   H129      1.0  0.24742  0.72475  0.32932  1.0000
  C   C205      1.0  0.71401  0.29522  0.33706  1.0000
  C   C206      1.0  0.73970  0.27855  0.33368  1.0000
  C   C207      1.0  0.73540  0.25258  0.33162  1.0000
  C   C208      1.0  0.70442  0.24323  0.33669  1.0000
  C   C209      1.0  0.67798  0.25913  0.33835  1.0000
  C   C210      1.0  0.68333  0.28503  0.34070  1.0000
  H   H130      1.0  0.70103  0.22445  0.33670  1.0000
  H   H131      1.0  0.66444  0.29677  0.34388  1.0000
  H   H132      1.0  0.76212  0.28548  0.33110  1.0000
  C   C211      1.0  0.99738  0.27395  0.33638  1.0000
  C   C212      1.0  0.98877  0.29923  0.34149  1.0000
  C   C213      1.0  0.01157  0.31834  0.34171  1.0000
  C   C214      1.0  0.04379  0.31175  0.33770  1.0000
  C   C215      1.0  0.05314  0.28663  0.33411  1.0000
  C   C216      1.0  0.02974  0.26805  0.33445  1.0000
  H   H133      1.0  0.06059  0.32535  0.33807  1.0000
  H   H134      1.0  0.03637  0.24980  0.33540  1.0000
  H   H135      1.0  0.96536  0.30382  0.34222  1.0000
  C   C217      1.0  0.01216  0.73630  0.33775  1.0000
  C   C218      1.0  0.02071  0.71102  0.34322  1.0000
  C   C219      1.0  0.99785  0.69195  0.34371  1.0000
  C   C220      1.0  0.96566  0.69858  0.33968  1.0000
  C   C221      1.0  0.95637  0.72371  0.33579  1.0000
  C   C222      1.0  0.97981  0.74225  0.33582  1.0000
  H   H136      1.0  0.94883  0.68500  0.34010  1.0000
  H   H137      1.0  0.97321  0.76051  0.33644  1.0000
  H   H138      1.0  0.04410  0.70640  0.34391  1.0000
  C   C223      1.0  0.51210  0.77395  0.34930  1.0000
  C   C224      1.0  0.52070  0.79923  0.34420  1.0000
  C   C225      1.0  0.49790  0.81833  0.34394  1.0000
  C   C226      1.0  0.46569  0.81174  0.34794  1.0000
  C   C227      1.0  0.45633  0.78662  0.35156  1.0000
  C   C228      1.0  0.47974  0.76804  0.35122  1.0000
  H   H139      1.0  0.44888  0.82534  0.34755  1.0000
  H   H140      1.0  0.47311  0.74980  0.35026  1.0000
  H   H141      1.0  0.54411  0.80382  0.34342  1.0000
  C   C229      1.0  0.49734  0.23630  0.34785  1.0000
  C   C230      1.0  0.48879  0.21101  0.34241  1.0000
  C   C231      1.0  0.51165  0.19194  0.34198  1.0000
  C   C232      1.0  0.54384  0.19857  0.34604  1.0000
  C   C233      1.0  0.55313  0.22370  0.34988  1.0000
  C   C234      1.0  0.52969  0.24225  0.34978  1.0000
  H   H142      1.0  0.56067  0.18500  0.34568  1.0000
  H   H143      1.0  0.53628  0.26050  0.34918  1.0000
  H   H144      1.0  0.46539  0.20638  0.34171  1.0000
  C   C235      1.0  0.47959  0.00525  0.40851  1.0000
  C   C236      1.0  0.48567  0.02619  0.35259  1.0000
  C   C237      1.0  0.52429  0.98352  0.34819  1.0000
  N   N37       1.0  0.49875  0.98505  0.40296  1.0000
  C   C238      1.0  0.45510  0.00369  0.47925  1.0000
  H   H145      1.0  0.44485  0.02161  0.49559  1.0000
  H   H146      1.0  0.46531  0.99640  0.54126  1.0000
  H   H147      1.0  0.43643  0.99121  0.45719  1.0000
  C   C239      1.0  0.99691  0.52417  0.38919  1.0000
  N   N38       1.0  0.97869  0.50350  0.38962  1.0000
  H   H148      1.0  0.99088  0.53812  0.43234  1.0000
  C   C240      1.0  0.33044  0.05887  0.38898  1.0000
  N   N39       1.0  0.36239  0.05673  0.39154  1.0000
  H   H149      1.0  0.31771  0.05063  0.43907  1.0000
  C   C241      1.0  0.67948  0.95150  0.38550  1.0000
  N   N40       1.0  0.64754  0.95361  0.38849  1.0000
  H   H150      1.0  0.69228  0.95974  0.43545  1.0000
  C   C242      1.0  0.17396  0.58503  0.42706  1.0000
  C   C243      1.0  0.19412  0.57390  0.36184  1.0000
  C   C244      1.0  0.12820  0.56832  0.35465  1.0000
  N   N41       1.0  0.14228  0.58218  0.41932  1.0000
  C   C245      1.0  0.18432  0.59974  0.50586  1.0000
  H   H151      1.0  0.20966  0.59889  0.51670  1.0000
  H   H152      1.0  0.17305  0.59265  0.56663  1.0000
  H   H153      1.0  0.17745  0.61904  0.49673  1.0000
  C   C246      1.0  0.83532  0.42511  0.42997  1.0000
  C   C247      1.0  0.81506  0.43632  0.36521  1.0000
  C   C248      1.0  0.88095  0.44193  0.35722  1.0000
  N   N42       1.0  0.86698  0.42798  0.42185  1.0000
  C   C249      1.0  0.82509  0.41030  0.50865  1.0000
  H   H154      1.0  0.79976  0.41114  0.51985  1.0000
  H   H155      1.0  0.83646  0.41730  0.56940  1.0000
  H   H156      1.0  0.83194  0.39100  0.49911  1.0000
  C   C250      1.0  0.50126  0.12659  0.40785  1.0000
  C   C251      1.0  0.47772  0.11831  0.34626  1.0000
  C   C252      1.0  0.50196  0.16683  0.33955  1.0000
  N   N43       1.0  0.51225  0.15026  0.40163  1.0000
  C   C253      1.0  0.51345  0.11243  0.48580  1.0000
  H   H157      1.0  0.49997  0.09573  0.49968  1.0000
  H   H158      1.0  0.51247  0.12387  0.54633  1.0000
  H   H159      1.0  0.53791  0.10731  0.47334  1.0000
  C   C254      1.0  0.50860  0.88377  0.40864  1.0000
  C   C255      1.0  0.53218  0.89187  0.34684  1.0000
  C   C256      1.0  0.50769  0.84342  0.34117  1.0000
  N   N44       1.0  0.49750  0.86011  0.40296  1.0000
  C   C257      1.0  0.49647  0.89811  0.48619  1.0000
  H   H160      1.0  0.50987  0.91491  0.49924  1.0000
  H   H161      1.0  0.49763  0.88686  0.54714  1.0000
  H   H162      1.0  0.47196  0.90311  0.47390  1.0000
  C   C258      1.0  0.04172  0.63597  0.40412  1.0000
  N   N45       1.0  0.03008  0.65931  0.40473  1.0000
  H   H163      1.0  0.05838  0.63164  0.45123  1.0000
  C   C259      1.0  0.96749  0.37410  0.40322  1.0000
  N   N46       1.0  0.97925  0.35080  0.40326  1.0000
  H   H164      1.0  0.95086  0.37831  0.45054  1.0000
  C   C260      1.0  0.49697  0.48649  0.40617  1.0000
  C   C261      1.0  0.47317  0.49727  0.35069  1.0000
  C   C262      1.0  0.53666  0.51284  0.34237  1.0000
  N   N47       1.0  0.52729  0.49453  0.39893  1.0000
  C   C263      1.0  0.49165  0.46802  0.47832  1.0000
  H   H165      1.0  0.46684  0.46570  0.49483  1.0000
  H   H166      1.0  0.50353  0.47392  0.53986  1.0000
  H   H167      1.0  0.50130  0.45019  0.45763  1.0000
  C   C264      1.0  0.02600  0.01658  0.39241  1.0000
  N   N48       1.0  0.99538  0.02377  0.39454  1.0000
  H   H168      1.0  0.04129  0.02521  0.43525  1.0000
  C   C265      1.0  0.37359  0.41776  0.38792  1.0000
  N   N49       1.0  0.36874  0.39292  0.38904  1.0000
  H   H169      1.0  0.36144  0.42826  0.43340  1.0000
  C   C266      1.0  0.63530  0.59252  0.38758  1.0000
  N   N50       1.0  0.64024  0.61735  0.38867  1.0000
  H   H170      1.0  0.64722  0.58203  0.43356  1.0000
  C   C267      1.0  0.09789  0.91208  0.41613  1.0000
  C   C268      1.0  0.11376  0.92873  0.35702  1.0000
  C   C269      1.0  0.12469  0.87728  0.35132  1.0000
  N   N51       1.0  0.10373  0.88737  0.40972  1.0000
  C   C270      1.0  0.07621  0.91914  0.48990  1.0000
  H   H171      1.0  0.07666  0.93890  0.50440  1.0000
  H   H172      1.0  0.08291  0.90957  0.55172  1.0000
  H   H173      1.0  0.05224  0.91375  0.47221  1.0000
  C   C271      1.0  0.91160  0.09821  0.41800  1.0000
  C   C272      1.0  0.89611  0.08156  0.35802  1.0000
  C   C273      1.0  0.88498  0.13298  0.35249  1.0000
  N   N52       1.0  0.90569  0.12291  0.41160  1.0000
  C   C274      1.0  0.93291  0.09116  0.49267  1.0000
  H   H174      1.0  0.93236  0.07141  0.50730  1.0000
  H   H175      1.0  0.92593  0.10076  0.55417  1.0000
  H   H176      1.0  0.95697  0.09652  0.47589  1.0000
  C   C275      1.0  0.35642  0.53629  0.41111  1.0000
  C   C276      1.0  0.35781  0.51578  0.35068  1.0000
  C   C277      1.0  0.30753  0.55005  0.34692  1.0000
  N   N53       1.0  0.33187  0.55244  0.40549  1.0000
  C   C278      1.0  0.37850  0.54123  0.48616  1.0000
  H   H177      1.0  0.39320  0.52532  0.50230  1.0000
  H   H178      1.0  0.36537  0.54585  0.54706  1.0000
  H   H179      1.0  0.39357  0.55688  0.46879  1.0000
  C   C279      1.0  0.65246  0.47397  0.41193  1.0000
  C   C280      1.0  0.65146  0.49455  0.35173  1.0000
  C   C281      1.0  0.70166  0.46020  0.34973  1.0000
  N   N54       1.0  0.67698  0.45778  0.40717  1.0000
  C   C282      1.0  0.62985  0.46895  0.48562  1.0000
  H   H180      1.0  0.61492  0.48479  0.50084  1.0000
  H   H181      1.0  0.64258  0.46440  0.54729  1.0000
  H   H182      1.0  0.61503  0.45323  0.46737  1.0000
  C   C283      1.0  0.17765  0.01356  0.39464  1.0000
  N   N55       1.0  0.20159  0.03027  0.39490  1.0000
  H   H183      1.0  0.17857  0.99956  0.44084  1.0000
  C   C284      1.0  0.83171  0.99683  0.39228  1.0000
  N   N56       1.0  0.80784  0.98007  0.39174  1.0000
  H   H184      1.0  0.83052  0.01085  0.43832  1.0000
  C   C285      1.0  0.20385  0.17127  0.40573  1.0000
  C   C286      1.0  0.21933  0.18875  0.34889  1.0000
  C   C287      1.0  0.23313  0.13780  0.34054  1.0000
  N   N57       1.0  0.21127  0.14679  0.39860  1.0000
  C   C288      1.0  0.18164  0.17731  0.47939  1.0000
  H   H185      1.0  0.18092  0.19699  0.49509  1.0000
  H   H186      1.0  0.18868  0.16770  0.54082  1.0000
  H   H187      1.0  0.15804  0.17120  0.46080  1.0000
  C   C289      1.0  0.80564  0.83898  0.40397  1.0000
  C   C290      1.0  0.79017  0.82146  0.34727  1.0000
  C   C291      1.0  0.77663  0.87244  0.33771  1.0000
  N   N58       1.0  0.79833  0.86347  0.39633  1.0000
  C   C292      1.0  0.82761  0.83297  0.47825  1.0000
  H   H188      1.0  0.82821  0.81332  0.49427  1.0000
  H   H189      1.0  0.82043  0.84267  0.53938  1.0000
  H   H190      1.0  0.85129  0.83901  0.46013  1.0000
  C   C293      1.0  0.26760  0.67878  0.39701  1.0000
  N   N59       1.0  0.26119  0.65422  0.39878  1.0000
  H   H191      1.0  0.25552  0.68993  0.44060  1.0000
  C   C294      1.0  0.74170  0.33139  0.39921  1.0000
  N   N60       1.0  0.74799  0.35597  0.40154  1.0000
  H   H192      1.0  0.75372  0.32022  0.44283  1.0000
  C   C295      1.0  0.28546  0.27167  0.42869  1.0000
  C   C296      1.0  0.26163  0.27399  0.36184  1.0000
  C   C297      1.0  0.31568  0.30360  0.35797  1.0000
  N   N61       1.0  0.31151  0.28612  0.42243  1.0000
  C   C298      1.0  0.28464  0.25489  0.50752  1.0000
  H   H193      1.0  0.26174  0.24625  0.51736  1.0000
  H   H194      1.0  0.28999  0.26533  0.56853  1.0000
  H   H195      1.0  0.30233  0.24041  0.49926  1.0000
  C   C299      1.0  0.72394  0.73860  0.42748  1.0000
  C   C300      1.0  0.74778  0.73624  0.36071  1.0000
  C   C301      1.0  0.69371  0.70663  0.35692  1.0000
  N   N62       1.0  0.69788  0.72415  0.42124  1.0000
  C   C302      1.0  0.72470  0.75544  0.50613  1.0000
  H   H196      1.0  0.74760  0.76411  0.51596  1.0000
  H   H197      1.0  0.71934  0.74505  0.56723  1.0000
  H   H198      1.0  0.70701  0.76991  0.49766  1.0000
  C   C303      1.0  0.24332  0.79272  0.38934  1.0000
  N   N63       1.0  0.21665  0.80657  0.39045  1.0000
  H   H199      1.0  0.25919  0.79521  0.44027  1.0000
  C   C304      1.0  0.76618  0.21744  0.39024  1.0000
  N   N64       1.0  0.79288  0.20361  0.39142  1.0000
  H   H200      1.0  0.75032  0.21494  0.44117  1.0000
  C   C305      1.0  0.47316  0.27566  0.40874  1.0000
  C   C306      1.0  0.47416  0.25547  0.34689  1.0000
  C   C307      1.0  0.42848  0.29265  0.33300  1.0000
  N   N65       1.0  0.45039  0.29322  0.39928  1.0000
  C   C308      1.0  0.49329  0.27857  0.48949  1.0000
  H   H201      1.0  0.50750  0.26226  0.50374  1.0000
  H   H202      1.0  0.47858  0.28189  0.54851  1.0000
  H   H203      1.0  0.50890  0.29440  0.48025  1.0000
  C   C309      1.0  0.53623  0.73443  0.40901  1.0000
  C   C310      1.0  0.53524  0.75475  0.34772  1.0000
  C   C311      1.0  0.58090  0.71760  0.33280  1.0000
  N   N66       1.0  0.55900  0.71690  0.39911  1.0000
  C   C312      1.0  0.51617  0.73140  0.48985  1.0000
  H   H204      1.0  0.50198  0.74770  0.50455  1.0000
  H   H205      1.0  0.53093  0.72798  0.54870  1.0000
  H   H206      1.0  0.50054  0.71559  0.48038  1.0000
  C   C313      1.0  0.05869  0.75532  0.40659  1.0000
  N   N67       1.0  0.08083  0.77330  0.41053  1.0000
  H   H207      1.0  0.05954  0.74157  0.45380  1.0000
  C   C314      1.0  0.95093  0.25503  0.40597  1.0000
  N   N68       1.0  0.92880  0.23705  0.41043  1.0000
  H   H208      1.0  0.95010  0.26886  0.45287  1.0000
  C   C315      1.0  0.13532  0.27954  0.40664  1.0000
  C   C316      1.0  0.14670  0.26102  0.34631  1.0000
  C   C317      1.0  0.08515  0.27950  0.33360  1.0000
  N   N69       1.0  0.10525  0.28790  0.39758  1.0000
  C   C318      1.0  0.15236  0.28945  0.48587  1.0000
  H   H209      1.0  0.17357  0.27903  0.50186  1.0000
  H   H210      1.0  0.13720  0.28868  0.54515  1.0000
  H   H211      1.0  0.15875  0.30871  0.47346  1.0000
  C   C319      1.0  0.87405  0.73076  0.40718  1.0000
  C   C320      1.0  0.86274  0.74921  0.34644  1.0000
  C   C321      1.0  0.92436  0.73084  0.33500  1.0000
  N   N70       1.0  0.90416  0.72244  0.39866  1.0000
  C   C322      1.0  0.85684  0.72082  0.48606  1.0000
  H   H212      1.0  0.83557  0.73122  0.50165  1.0000
  H   H213      1.0  0.87185  0.72161  0.54563  1.0000
  H   H214      1.0  0.85050  0.70155  0.47350  1.0000
  C   C323      1.0  0.38435  0.75251  0.40509  1.0000
  N   N71       1.0  0.41407  0.76150  0.40865  1.0000
  H   H215      1.0  0.37807  0.73934  0.45112  1.0000
  C   C324      1.0  0.62507  0.25771  0.40465  1.0000
  N   N72       1.0  0.59532  0.24877  0.40765  1.0000
  H   H216      1.0  0.63129  0.27085  0.45087  1.0000
