data_image0
_chemical_formula_structural       C2NC2NOH3C2NCOCH3C2NCOCH3NCHNCHNCHNCHNCHNCHC24H15C24H15C24H15C24H15C24H15C24H15CHNCHNCHC2NCOCH3C2NCOCH3C2NCOCH3C2NCOCH3C2NCOCH3C2NCOCH3
_chemical_formula_sum              "C189 N18 O9 H126"
_cell_length_a       61.3827
_cell_length_b       61.3827
_cell_length_c       14.9917
_cell_angle_alpha    90
_cell_angle_beta     90
_cell_angle_gamma    120

_space_group_name_H-M_alt    "P 1"
_space_group_IT_number       1

loop_
  _space_group_symop_operation_xyz
  'x, y, z'

loop_
  _atom_site_type_symbol
  _atom_site_label
  _atom_site_symmetry_multiplicity
  _atom_site_fract_x
  _atom_site_fract_y
  _atom_site_fract_z
  _atom_site_occupancy
  C   C1        1.0  0.01250  0.50243  0.23353  1.0000
  C   C2        1.0  0.01598  0.51034  0.07822  1.0000
  N   N1        1.0  0.01469  0.51156  0.38807  1.0000
  C   C3        1.0  0.02717  0.51394  0.31045  1.0000
  C   C4        1.0  0.97436  0.48737  0.31950  1.0000
  N   N2        1.0  0.98701  0.48938  0.24252  1.0000
  O   O1        1.0  0.02338  0.50151  0.15487  1.0000
  H   H1        1.0  0.02676  0.50997  0.02104  1.0000
  H   H2        1.0  0.01998  0.52966  0.08748  1.0000
  H   H3        1.0  0.99602  0.49818  0.06338  1.0000
  C   C5        1.0  0.48676  0.51344  0.31048  1.0000
  C   C6        1.0  0.51333  0.48720  0.31948  1.0000
  N   N3        1.0  0.51131  0.49784  0.24251  1.0000
  C   C7        1.0  0.49828  0.51028  0.23356  1.0000
  O   O2        1.0  0.49915  0.52207  0.15490  1.0000
  C   C8        1.0  0.49034  0.50584  0.07825  1.0000
  H   H4        1.0  0.49068  0.51698  0.02108  1.0000
  H   H5        1.0  0.47104  0.49049  0.08753  1.0000
  H   H6        1.0  0.50254  0.49808  0.06337  1.0000
  C   C9        1.0  0.48730  0.97343  0.31046  1.0000
  C   C10       1.0  0.51352  0.02624  0.31950  1.0000
  N   N4        1.0  0.50288  0.01358  0.24253  1.0000
  C   C11       1.0  0.49045  0.98810  0.23353  1.0000
  O   O3        1.0  0.47866  0.97721  0.15487  1.0000
  C   C12       1.0  0.49489  0.98462  0.07822  1.0000
  H   H7        1.0  0.48374  0.97383  0.02104  1.0000
  H   H8        1.0  0.51021  0.98062  0.08749  1.0000
  H   H9        1.0  0.50268  0.00458  0.06339  1.0000
  N   N5        1.0  0.25516  0.53641  0.27830  1.0000
  C   C13       1.0  0.27647  0.53511  0.26941  1.0000
  H   H10       1.0  0.28568  0.54008  0.20966  1.0000
  N   N6        1.0  0.46450  0.71901  0.27816  1.0000
  C   C14       1.0  0.46589  0.74166  0.26917  1.0000
  H   H11       1.0  0.46080  0.74584  0.20956  1.0000
  N   N7        1.0  0.28175  0.74549  0.27825  1.0000
  C   C15       1.0  0.25912  0.72420  0.26936  1.0000
  H   H12       1.0  0.25487  0.71500  0.20961  1.0000
  N   N8        1.0  0.74572  0.46452  0.27197  1.0000
  C   C16       1.0  0.72450  0.46601  0.26339  1.0000
  H   H13       1.0  0.71527  0.46113  0.20368  1.0000
  N   N9        1.0  0.53638  0.28145  0.27202  1.0000
  C   C17       1.0  0.53494  0.25877  0.26355  1.0000
  H   H14       1.0  0.53966  0.25433  0.20368  1.0000
  N   N10       1.0  0.71924  0.25501  0.27212  1.0000
  C   C18       1.0  0.74194  0.27624  0.26358  1.0000
  H   H15       1.0  0.74628  0.28548  0.20390  1.0000
  C   C19       1.0  0.17362  0.60933  0.34015  1.0000
  C   C20       1.0  0.14733  0.59549  0.32713  1.0000
  C   C21       1.0  0.13430  0.56885  0.32529  1.0000
  C   C22       1.0  0.14822  0.55623  0.33353  1.0000
  C   C23       1.0  0.17457  0.56968  0.34544  1.0000
  C   C24       1.0  0.18693  0.59620  0.34878  1.0000
  C   C25       1.0  0.10758  0.55492  0.31981  1.0000
  C   C26       1.0  0.09454  0.55959  0.25161  1.0000
  C   C27       1.0  0.06809  0.54583  0.24732  1.0000
  C   C28       1.0  0.05388  0.52726  0.31182  1.0000
  C   C29       1.0  0.06694  0.52295  0.38098  1.0000
  C   C30       1.0  0.09337  0.53635  0.38433  1.0000
  C   C31       1.0  0.18704  0.63597  0.34624  1.0000
  C   C32       1.0  0.18988  0.65103  0.27108  1.0000
  C   C33       1.0  0.20762  0.67696  0.27178  1.0000
  C   C34       1.0  0.22282  0.68863  0.34770  1.0000
  C   C35       1.0  0.21850  0.67362  0.42473  1.0000
  C   C36       1.0  0.20111  0.64770  0.42379  1.0000
  C   C37       1.0  0.18876  0.55724  0.35407  1.0000
  C   C38       1.0  0.20574  0.56315  0.42586  1.0000
  C   C39       1.0  0.22237  0.55370  0.42878  1.0000
  C   C40       1.0  0.22263  0.53803  0.36001  1.0000
  C   C41       1.0  0.20526  0.53173  0.28911  1.0000
  C   C42       1.0  0.18831  0.54089  0.28674  1.0000
  H   H16       1.0  0.21004  0.68702  0.21462  1.0000
  H   H17       1.0  0.18053  0.64293  0.21304  1.0000
  H   H18       1.0  0.22940  0.68091  0.48052  1.0000
  H   H19       1.0  0.19984  0.63720  0.47872  1.0000
  H   H20       1.0  0.20686  0.57525  0.47504  1.0000
  H   H21       1.0  0.23547  0.55989  0.47874  1.0000
  H   H22       1.0  0.17685  0.53692  0.23233  1.0000
  H   H23       1.0  0.20532  0.52099  0.23699  1.0000
  H   H24       1.0  0.10215  0.53282  0.43578  1.0000
  H   H25       1.0  0.05732  0.50977  0.42920  1.0000
  H   H26       1.0  0.05930  0.55005  0.19793  1.0000
  H   H27       1.0  0.10422  0.57294  0.20396  1.0000
  H   H28       1.0  0.13749  0.60489  0.32328  1.0000
  H   H29       1.0  0.20611  0.60621  0.35612  1.0000
  H   H30       1.0  0.13903  0.53697  0.33210  1.0000
  C   C43       1.0  0.39135  0.56448  0.34013  1.0000
  C   C44       1.0  0.40519  0.55203  0.32715  1.0000
  C   C45       1.0  0.43183  0.56564  0.32529  1.0000
  C   C46       1.0  0.44445  0.59218  0.33348  1.0000
  C   C47       1.0  0.43101  0.60509  0.34534  1.0000
  C   C48       1.0  0.40448  0.59093  0.34870  1.0000
  C   C49       1.0  0.44576  0.55285  0.31984  1.0000
  C   C50       1.0  0.44108  0.53512  0.25167  1.0000
  C   C51       1.0  0.45485  0.52244  0.24735  1.0000
  C   C52       1.0  0.47343  0.52681  0.31185  1.0000
  C   C53       1.0  0.47773  0.54419  0.38100  1.0000
  C   C54       1.0  0.46433  0.55721  0.38435  1.0000
  C   C55       1.0  0.36472  0.55127  0.34624  1.0000
  C   C56       1.0  0.34965  0.53905  0.27109  1.0000
  C   C57       1.0  0.32372  0.53087  0.27183  1.0000
  C   C58       1.0  0.31206  0.53441  0.34774  1.0000
  C   C59       1.0  0.32707  0.54508  0.42479  1.0000
  C   C60       1.0  0.35299  0.55361  0.42380  1.0000
  C   C61       1.0  0.44346  0.63172  0.35395  1.0000
  C   C62       1.0  0.43756  0.64281  0.42567  1.0000
  C   C63       1.0  0.44701  0.66889  0.42848  1.0000
  C   C64       1.0  0.46276  0.68480  0.35985  1.0000
  C   C65       1.0  0.46908  0.67373  0.28907  1.0000
  C   C66       1.0  0.45984  0.64760  0.28666  1.0000
  H   H31       1.0  0.31365  0.52323  0.21466  1.0000
  H   H32       1.0  0.35774  0.53779  0.21304  1.0000
  H   H33       1.0  0.31978  0.54871  0.48053  1.0000
  H   H34       1.0  0.36350  0.56285  0.47870  1.0000
  H   H35       1.0  0.42540  0.63184  0.47474  1.0000
  H   H36       1.0  0.44083  0.67582  0.47841  1.0000
  H   H37       1.0  0.46385  0.64011  0.23236  1.0000
  H   H38       1.0  0.47987  0.68452  0.23701  1.0000
  H   H39       1.0  0.46786  0.56952  0.43578  1.0000
  H   H40       1.0  0.49092  0.54776  0.42920  1.0000
  H   H41       1.0  0.45062  0.50942  0.19802  1.0000
  H   H42       1.0  0.42772  0.53143  0.20404  1.0000
  H   H43       1.0  0.39578  0.53279  0.32332  1.0000
  H   H44       1.0  0.39448  0.60010  0.35601  1.0000
  H   H45       1.0  0.46372  0.60224  0.33206  1.0000
  C   C67       1.0  0.43623  0.82697  0.34005  1.0000
  C   C68       1.0  0.44868  0.85325  0.32697  1.0000
  C   C69       1.0  0.43508  0.86629  0.32522  1.0000
  C   C70       1.0  0.40854  0.85238  0.33348  1.0000
  C   C71       1.0  0.39563  0.82603  0.34536  1.0000
  C   C72       1.0  0.40979  0.81366  0.34870  1.0000
  C   C73       1.0  0.44787  0.89301  0.31978  1.0000
  C   C74       1.0  0.46559  0.90606  0.25159  1.0000
  C   C75       1.0  0.47827  0.93251  0.24728  1.0000
  C   C76       1.0  0.47392  0.94672  0.31182  1.0000
  C   C77       1.0  0.45655  0.93365  0.38099  1.0000
  C   C78       1.0  0.44353  0.90722  0.38435  1.0000
  C   C79       1.0  0.44944  0.81354  0.34614  1.0000
  C   C80       1.0  0.46176  0.81080  0.27108  1.0000
  C   C81       1.0  0.46998  0.79308  0.27178  1.0000
  C   C82       1.0  0.46644  0.77786  0.34764  1.0000
  C   C83       1.0  0.45566  0.78209  0.42459  1.0000
  C   C84       1.0  0.44709  0.79946  0.42365  1.0000
  C   C85       1.0  0.36900  0.81184  0.35403  1.0000
  C   C86       1.0  0.35792  0.79487  0.42583  1.0000
  C   C87       1.0  0.33185  0.77824  0.42874  1.0000
  C   C88       1.0  0.31594  0.77799  0.35992  1.0000
  C   C89       1.0  0.32699  0.79538  0.28909  1.0000
  C   C90       1.0  0.35311  0.81228  0.28665  1.0000
  H   H46       1.0  0.47771  0.79074  0.21472  1.0000
  H   H47       1.0  0.46305  0.82019  0.21309  1.0000
  H   H48       1.0  0.45200  0.77114  0.48025  1.0000
  H   H49       1.0  0.43776  0.80063  0.47845  1.0000
  H   H50       1.0  0.36891  0.79371  0.47491  1.0000
  H   H51       1.0  0.32494  0.76511  0.47859  1.0000
  H   H52       1.0  0.36059  0.82380  0.23237  1.0000
  H   H53       1.0  0.31619  0.79533  0.23699  1.0000
  H   H54       1.0  0.43121  0.89844  0.43575  1.0000
  H   H55       1.0  0.45298  0.94327  0.42920  1.0000
  H   H56       1.0  0.49129  0.94130  0.19793  1.0000
  H   H57       1.0  0.46926  0.89638  0.20391  1.0000
  H   H58       1.0  0.46792  0.86309  0.32320  1.0000
  H   H59       1.0  0.40062  0.79448  0.35603  1.0000
  H   H60       1.0  0.39847  0.86158  0.33208  1.0000
  C   C91       1.0  0.82726  0.39110  0.33527  1.0000
  C   C92       1.0  0.85364  0.40506  0.32518  1.0000
  C   C93       1.0  0.86664  0.43172  0.32306  1.0000
  C   C94       1.0  0.85245  0.44415  0.32818  1.0000
  C   C95       1.0  0.82604  0.43060  0.33801  1.0000
  C   C96       1.0  0.81377  0.40409  0.34137  1.0000
  C   C97       1.0  0.89348  0.44577  0.32085  1.0000
  C   C98       1.0  0.90741  0.43970  0.26076  1.0000
  C   C99       1.0  0.93389  0.45349  0.26004  1.0000
  C   C100      1.0  0.94750  0.47357  0.32046  1.0000
  C   C101      1.0  0.93346  0.47960  0.38034  1.0000
  C   C102      1.0  0.90701  0.46601  0.38051  1.0000
  C   C103      1.0  0.81391  0.36448  0.34153  1.0000
  C   C104      1.0  0.81115  0.34942  0.26647  1.0000
  C   C105      1.0  0.79339  0.32350  0.26706  1.0000
  C   C106      1.0  0.77803  0.31186  0.34266  1.0000
  C   C107      1.0  0.78224  0.32687  0.41962  1.0000
  C   C108      1.0  0.79967  0.35278  0.41880  1.0000
  C   C109      1.0  0.81173  0.44293  0.34635  1.0000
  C   C110      1.0  0.79465  0.43687  0.41789  1.0000
  C   C111      1.0  0.77807  0.44638  0.42112  1.0000
  C   C112      1.0  0.77802  0.46232  0.35305  1.0000
  C   C113      1.0  0.79547  0.46876  0.28233  1.0000
  C   C114      1.0  0.81233  0.45949  0.27959  1.0000
  H   H61       1.0  0.79109  0.31342  0.21004  1.0000
  H   H62       1.0  0.82068  0.35750  0.20869  1.0000
  H   H63       1.0  0.77114  0.31964  0.47499  1.0000
  H   H64       1.0  0.80078  0.36332  0.47343  1.0000
  H   H65       1.0  0.79345  0.42467  0.46678  1.0000
  H   H66       1.0  0.76494  0.44012  0.47099  1.0000
  H   H67       1.0  0.82394  0.46366  0.22552  1.0000
  H   H68       1.0  0.79558  0.47974  0.23075  1.0000
  H   H69       1.0  0.89773  0.47086  0.42600  1.0000
  H   H70       1.0  0.94227  0.49432  0.42385  1.0000
  H   H71       1.0  0.94315  0.44832  0.21563  1.0000
  H   H72       1.0  0.89836  0.42534  0.21590  1.0000
  H   H73       1.0  0.86353  0.39568  0.32398  1.0000
  H   H74       1.0  0.79455  0.39400  0.34732  1.0000
  H   H75       1.0  0.86150  0.46341  0.32655  1.0000
  C   C115      1.0  0.60960  0.43637  0.33516  1.0000
  C   C116      1.0  0.59563  0.44879  0.32499  1.0000
  C   C117      1.0  0.56897  0.43512  0.32296  1.0000
  C   C118      1.0  0.55654  0.40850  0.32813  1.0000
  C   C119      1.0  0.57010  0.39564  0.33802  1.0000
  C   C120      1.0  0.59661  0.40989  0.34134  1.0000
  C   C121      1.0  0.55492  0.44791  0.32076  1.0000
  C   C122      1.0  0.56098  0.46790  0.26064  1.0000
  C   C123      1.0  0.54720  0.48060  0.25996  1.0000
  C   C124      1.0  0.52713  0.47413  0.32042  1.0000
  C   C125      1.0  0.52110  0.45406  0.38031  1.0000
  C   C126      1.0  0.53468  0.44120  0.38044  1.0000
  C   C127      1.0  0.63622  0.44965  0.34140  1.0000
  C   C128      1.0  0.65127  0.46196  0.26634  1.0000
  C   C129      1.0  0.67720  0.47015  0.26692  1.0000
  C   C130      1.0  0.68885  0.46642  0.34248  1.0000
  C   C131      1.0  0.67383  0.45556  0.41937  1.0000
  C   C132      1.0  0.64792  0.44710  0.41866  1.0000
  C   C133      1.0  0.55778  0.36901  0.34644  1.0000
  C   C134      1.0  0.56383  0.35801  0.41809  1.0000
  C   C135      1.0  0.55438  0.33194  0.42131  1.0000
  C   C136      1.0  0.53850  0.31593  0.35315  1.0000
  C   C137      1.0  0.53203  0.32691  0.28240  1.0000
  C   C138      1.0  0.54128  0.35304  0.27959  1.0000
  H   H76       1.0  0.68728  0.47796  0.20993  1.0000
  H   H77       1.0  0.64319  0.46343  0.20859  1.0000
  H   H78       1.0  0.68109  0.45178  0.47485  1.0000
  H   H79       1.0  0.63740  0.43769  0.47331  1.0000
  H   H80       1.0  0.57602  0.36904  0.46698  1.0000
  H   H81       1.0  0.56065  0.32509  0.47121  1.0000
  H   H82       1.0  0.53711  0.36047  0.22546  1.0000
  H   H83       1.0  0.52112  0.31603  0.23070  1.0000
  H   H84       1.0  0.52986  0.42708  0.42598  1.0000
  H   H85       1.0  0.50639  0.44816  0.42385  1.0000
  H   H86       1.0  0.55235  0.49501  0.21549  1.0000
  H   H87       1.0  0.57533  0.47320  0.21574  1.0000
  H   H88       1.0  0.60500  0.46805  0.32382  1.0000
  H   H89       1.0  0.60671  0.40077  0.34733  1.0000
  H   H90       1.0  0.53729  0.39829  0.32657  1.0000
  C   C139      1.0  0.56431  0.17333  0.33526  1.0000
  C   C140      1.0  0.55189  0.14695  0.32509  1.0000
  C   C141      1.0  0.56556  0.13395  0.32302  1.0000
  C   C142      1.0  0.59218  0.14815  0.32817  1.0000
  C   C143      1.0  0.60504  0.17456  0.33805  1.0000
  C   C144      1.0  0.59080  0.18682  0.34139  1.0000
  C   C145      1.0  0.55278  0.10711  0.32084  1.0000
  C   C146      1.0  0.53278  0.09318  0.26072  1.0000
  C   C147      1.0  0.52009  0.06670  0.26005  1.0000
  C   C148      1.0  0.52657  0.05310  0.32048  1.0000
  C   C149      1.0  0.54664  0.06715  0.38039  1.0000
  C   C150      1.0  0.55949  0.09359  0.38051  1.0000
  C   C151      1.0  0.55104  0.18668  0.34150  1.0000
  C   C152      1.0  0.53879  0.18949  0.26638  1.0000
  C   C153      1.0  0.53066  0.20727  0.26695  1.0000
  C   C154      1.0  0.53437  0.22261  0.34259  1.0000
  C   C155      1.0  0.54515  0.21838  0.41954  1.0000
  C   C156      1.0  0.55359  0.20092  0.41877  1.0000
  C   C157      1.0  0.63168  0.18887  0.34643  1.0000
  C   C158      1.0  0.64268  0.20593  0.41805  1.0000
  C   C159      1.0  0.66876  0.22252  0.42134  1.0000
  C   C160      1.0  0.68476  0.22265  0.35311  1.0000
  C   C161      1.0  0.67377  0.20523  0.28232  1.0000
  C   C162      1.0  0.64764  0.18833  0.27957  1.0000
  H   H91       1.0  0.52290  0.20959  0.20991  1.0000
  H   H92       1.0  0.53734  0.17996  0.20858  1.0000
  H   H93       1.0  0.54891  0.22940  0.47509  1.0000
  H   H94       1.0  0.56292  0.19973  0.47355  1.0000
  H   H95       1.0  0.63166  0.20709  0.46694  1.0000
  H   H96       1.0  0.67561  0.23566  0.47117  1.0000
  H   H97       1.0  0.64021  0.17674  0.22546  1.0000
  H   H98       1.0  0.68465  0.20517  0.23068  1.0000
  H   H99       1.0  0.57361  0.10288  0.42604  1.0000
  H   H100      1.0  0.55255  0.05834  0.42388  1.0000
  H   H101      1.0  0.50567  0.05743  0.21558  1.0000
  H   H102      1.0  0.52747  0.10222  0.21586  1.0000
  H   H103      1.0  0.53263  0.13706  0.32394  1.0000
  H   H104      1.0  0.59992  0.20604  0.34737  1.0000
  H   H105      1.0  0.60239  0.13910  0.32659  1.0000
  C   C163      1.0  0.98930  0.49915  0.39548  1.0000
  H   H106      1.0  0.98157  0.49791  0.45690  1.0000
  N   N11       1.0  0.48915  0.50334  0.38809  1.0000
  C   C164      1.0  0.50158  0.49038  0.39550  1.0000
  H   H107      1.0  0.50278  0.48385  0.45688  1.0000
  N   N12       1.0  0.49739  0.98590  0.38808  1.0000
  C   C165      1.0  0.51037  0.01130  0.39549  1.0000
  H   H108      1.0  0.51685  0.01903  0.45690  1.0000
  C   C166      1.0  0.24219  0.53205  0.35606  1.0000
  C   C167      1.0  0.28706  0.53041  0.34565  1.0000
  N   N13       1.0  0.27379  0.52570  0.42295  1.0000
  C   C168      1.0  0.25163  0.52542  0.43119  1.0000
  O   O4        1.0  0.24088  0.52119  0.51388  1.0000
  C   C169      1.0  0.22248  0.49523  0.52870  1.0000
  H   H109      1.0  0.21495  0.49352  0.59581  1.0000
  H   H110      1.0  0.23088  0.48320  0.52428  1.0000
  H   H111      1.0  0.20688  0.48868  0.48148  1.0000
  C   C170      1.0  0.46883  0.71038  0.35592  1.0000
  C   C171      1.0  0.47051  0.75690  0.34550  1.0000
  N   N14       1.0  0.47515  0.74830  0.42284  1.0000
  C   C172      1.0  0.47546  0.72644  0.43107  1.0000
  O   O5        1.0  0.47956  0.71988  0.51387  1.0000
  C   C173      1.0  0.50547  0.72731  0.52903  1.0000
  H   H112      1.0  0.50708  0.72146  0.59621  1.0000
  H   H113      1.0  0.51759  0.74772  0.52463  1.0000
  H   H114      1.0  0.51199  0.71818  0.48199  1.0000
  C   C174      1.0  0.29038  0.75846  0.35600  1.0000
  C   C175      1.0  0.24381  0.71363  0.34558  1.0000
  N   N15       1.0  0.25242  0.72689  0.42289  1.0000
  C   C176      1.0  0.27432  0.74903  0.43114  1.0000
  O   O6        1.0  0.28085  0.75976  0.51386  1.0000
  C   C177      1.0  0.27334  0.77819  0.52877  1.0000
  H   H115      1.0  0.27918  0.78571  0.59589  1.0000
  H   H116      1.0  0.25292  0.76984  0.52437  1.0000
  H   H117      1.0  0.28243  0.79381  0.48159  1.0000
  C   C178      1.0  0.75863  0.46857  0.34971  1.0000
  C   C179      1.0  0.71385  0.47043  0.34009  1.0000
  N   N16       1.0  0.72704  0.47476  0.41742  1.0000
  C   C180      1.0  0.74916  0.47497  0.42533  1.0000
  O   O7        1.0  0.75973  0.47872  0.50820  1.0000
  C   C181      1.0  0.77791  0.50461  0.52517  1.0000
  H   H118      1.0  0.78533  0.50592  0.59225  1.0000
  H   H119      1.0  0.76936  0.51652  0.52214  1.0000
  H   H120      1.0  0.79363  0.51161  0.47825  1.0000
  C   C182      1.0  0.53235  0.29033  0.34978  1.0000
  C   C183      1.0  0.53046  0.24368  0.34021  1.0000
  N   N17       1.0  0.52610  0.25251  0.41752  1.0000
  C   C184      1.0  0.52594  0.27446  0.42541  1.0000
  O   O8        1.0  0.52208  0.28124  0.50818  1.0000
  C   C185      1.0  0.49615  0.27345  0.52485  1.0000
  H   H121      1.0  0.49476  0.27954  0.59187  1.0000
  H   H122      1.0  0.48431  0.25298  0.52183  1.0000
  H   H123      1.0  0.48914  0.28212  0.47776  1.0000
  C   C186      1.0  0.71038  0.24207  0.34982  1.0000
  C   C187      1.0  0.75699  0.28688  0.34031  1.0000
  N   N18       1.0  0.74816  0.27366  0.41760  1.0000
  C   C188      1.0  0.72625  0.25153  0.42545  1.0000
  O   O9        1.0  0.71945  0.24093  0.50827  1.0000
  C   C189      1.0  0.72718  0.22274  0.52505  1.0000
  H   H124      1.0  0.72108  0.21530  0.59211  1.0000
  H   H125      1.0  0.74764  0.23131  0.52198  1.0000
  H   H126      1.0  0.71846  0.20705  0.47806  1.0000
