data_image0
_chemical_formula_structural       COHC2HCHC4HCHOHC2HC4HC4HO2H2C2H2C4HC4HO2H2C2H2C2NHNC2NHNC2NHNC2NHNC2NHNC2NHNC2HC3H2C2HC2HC2H2C2HC2HC2H2C2NC3H5NC2NC3H5NC2NC3H5NC2NC3H5NC2NC3H5NC2NC3H5N
_chemical_formula_sum              "C90 O6 H66 N24"
_cell_length_a       31.5345
_cell_length_b       31.5346
_cell_length_c       14.9074
_cell_angle_alpha    90
_cell_angle_beta     90
_cell_angle_gamma    120

_space_group_name_H-M_alt    "P 1"
_space_group_IT_number       1

loop_
  _space_group_symop_operation_xyz
  'x, y, z'

loop_
  _atom_site_type_symbol
  _atom_site_label
  _atom_site_symmetry_multiplicity
  _atom_site_fract_x
  _atom_site_fract_y
  _atom_site_fract_z
  _atom_site_occupancy
  C   C1        1.0  0.03031  0.52145  0.31599  1.0000
  O   O1        1.0  0.01872  0.58627  0.25623  1.0000
  H   H1        1.0  0.01284  0.60744  0.29682  1.0000
  C   C2        1.0  0.04799  0.57254  0.30027  1.0000
  C   C3        1.0  0.06645  0.50872  0.33984  1.0000
  H   H2        1.0  0.05645  0.47355  0.35591  1.0000
  C   C4        1.0  0.09729  0.60926  0.31886  1.0000
  H   H3        1.0  0.09643  0.67229  0.26823  1.0000
  C   C5        1.0  0.97902  0.48474  0.31603  1.0000
  C   C6        1.0  0.88003  0.41259  0.35131  1.0000
  C   C7        1.0  0.91203  0.39692  0.31889  1.0000
  C   C8        1.0  0.96134  0.43365  0.30033  1.0000
  H   H4        1.0  0.84412  0.38694  0.36300  1.0000
  C   C9        1.0  0.12929  0.59358  0.35115  1.0000
  H   H5        1.0  0.16518  0.61920  0.36312  1.0000
  O   O2        1.0  0.99061  0.41994  0.25622  1.0000
  H   H6        1.0  0.99652  0.39878  0.29678  1.0000
  C   C10       1.0  0.89314  0.34617  0.30272  1.0000
  C   C11       1.0  0.11621  0.66002  0.30269  1.0000
  H   H7        1.0  0.91292  0.33391  0.26825  1.0000
  C   C12       1.0  0.52298  0.49579  0.31589  1.0000
  C   C13       1.0  0.59512  0.46895  0.35111  1.0000
  C   C14       1.0  0.61079  0.51660  0.31863  1.0000
  C   C15       1.0  0.57407  0.52919  0.30009  1.0000
  H   H8        1.0  0.62074  0.45867  0.36294  1.0000
  C   C16       1.0  0.48627  0.51036  0.31597  1.0000
  C   C17       1.0  0.43517  0.47696  0.30022  1.0000
  C   C18       1.0  0.39847  0.48957  0.31873  1.0000
  C   C19       1.0  0.41415  0.53727  0.35097  1.0000
  H   H9        1.0  0.38851  0.54754  0.36270  1.0000
  O   O3        1.0  0.58774  0.57214  0.25593  1.0000
  O   O4        1.0  0.42144  0.43395  0.25624  1.0000
  H   H10       1.0  0.60895  0.59923  0.29641  1.0000
  H   H11       1.0  0.40028  0.40692  0.29688  1.0000
  C   C20       1.0  0.66153  0.54843  0.30238  1.0000
  C   C21       1.0  0.34770  0.45772  0.30263  1.0000
  H   H12       1.0  0.67380  0.58047  0.26788  1.0000
  H   H13       1.0  0.33542  0.42565  0.26819  1.0000
  C   C22       1.0  0.51196  0.02877  0.31613  1.0000
  C   C23       1.0  0.53881  0.12777  0.35137  1.0000
  C   C24       1.0  0.49115  0.09576  0.31897  1.0000
  C   C25       1.0  0.47855  0.04645  0.30043  1.0000
  H   H14       1.0  0.54909  0.16368  0.36302  1.0000
  C   C26       1.0  0.49740  0.97749  0.31605  1.0000
  C   C27       1.0  0.53083  0.95983  0.30032  1.0000
  C   C28       1.0  0.51826  0.91053  0.31889  1.0000
  C   C29       1.0  0.47057  0.87850  0.35115  1.0000
  H   H15       1.0  0.46033  0.84262  0.36309  1.0000
  O   O5        1.0  0.43557  0.01719  0.25633  1.0000
  O   O6        1.0  0.57381  0.98912  0.25627  1.0000
  H   H16       1.0  0.40851  0.01128  0.29690  1.0000
  H   H17       1.0  0.60087  0.99501  0.29685  1.0000
  C   C30       1.0  0.45929  0.11466  0.30279  1.0000
  C   C31       1.0  0.55012  0.89164  0.30272  1.0000
  H   H18       1.0  0.42723  0.09488  0.26833  1.0000
  H   H19       1.0  0.58219  0.91144  0.26830  1.0000
  C   C32       1.0  0.19019  0.48066  0.36440  1.0000
  C   C33       1.0  0.18894  0.44366  0.30870  1.0000
  N   N1        1.0  0.22924  0.43881  0.29793  1.0000
  H   H20       1.0  0.15922  0.42311  0.26868  1.0000
  N   N2        1.0  0.15289  0.49060  0.35458  1.0000
  C   C34       1.0  0.52704  0.71111  0.36391  1.0000
  C   C35       1.0  0.56419  0.74694  0.30855  1.0000
  N   N3        1.0  0.56907  0.79211  0.29790  1.0000
  H   H21       1.0  0.58479  0.73781  0.26859  1.0000
  N   N4        1.0  0.51716  0.66388  0.35418  1.0000
  C   C36       1.0  0.29675  0.81746  0.36401  1.0000
  C   C37       1.0  0.26097  0.81874  0.30849  1.0000
  N   N5        1.0  0.21578  0.77847  0.29784  1.0000
  H   H22       1.0  0.27006  0.84848  0.26857  1.0000
  N   N6        1.0  0.34398  0.85481  0.35438  1.0000
  C   C38       1.0  0.81901  0.52540  0.36388  1.0000
  C   C39       1.0  0.82027  0.56241  0.30822  1.0000
  N   N7        1.0  0.78000  0.56732  0.29755  1.0000
  H   H23       1.0  0.85000  0.58303  0.26826  1.0000
  N   N8        1.0  0.85635  0.51551  0.35422  1.0000
  C   C40       1.0  0.48222  0.29512  0.36437  1.0000
  C   C41       1.0  0.44522  0.25935  0.30871  1.0000
  N   N9        1.0  0.44033  0.21418  0.29802  1.0000
  H   H24       1.0  0.42457  0.26844  0.26878  1.0000
  N   N10       1.0  0.49212  0.34234  0.35453  1.0000
  C   C42       1.0  0.71267  0.18867  0.36439  1.0000
  C   C43       1.0  0.74845  0.18737  0.30886  1.0000
  N   N11       1.0  0.79359  0.22768  0.29804  1.0000
  H   H25       1.0  0.73930  0.15770  0.26871  1.0000
  N   N12       1.0  0.66543  0.15137  0.35457  1.0000
  C   C44       1.0  0.94287  0.49744  0.33993  1.0000
  C   C45       1.0  0.89333  0.46235  0.35559  1.0000
  H   H26       1.0  0.95282  0.53264  0.35565  1.0000
  C   C46       1.0  0.11598  0.54382  0.35563  1.0000
  C   C47       1.0  0.15347  0.53288  0.37442  1.0000
  C   C48       1.0  0.85580  0.47325  0.37414  1.0000
  H   H27       1.0  0.18718  0.56223  0.38736  1.0000
  H   H28       1.0  0.82205  0.44393  0.38702  1.0000
  C   C49       1.0  0.51025  0.44692  0.33978  1.0000
  C   C50       1.0  0.54536  0.43250  0.35556  1.0000
  H   H29       1.0  0.47509  0.42175  0.35586  1.0000
  C   C51       1.0  0.46391  0.57371  0.35535  1.0000
  C   C52       1.0  0.49900  0.55924  0.33983  1.0000
  H   H30       1.0  0.53421  0.58445  0.35555  1.0000
  C   C53       1.0  0.47485  0.62215  0.37379  1.0000
  C   C54       1.0  0.53439  0.38407  0.37430  1.0000
  H   H31       1.0  0.44554  0.62663  0.38642  1.0000
  H   H32       1.0  0.56376  0.37972  0.38724  1.0000
  C   C55       1.0  0.56081  0.06492  0.34007  1.0000
  C   C56       1.0  0.57527  0.11446  0.35570  1.0000
  H   H33       1.0  0.58604  0.05495  0.35583  1.0000
  C   C57       1.0  0.43411  0.89180  0.35560  1.0000
  C   C58       1.0  0.44852  0.94132  0.33986  1.0000
  H   H34       1.0  0.42333  0.95130  0.35590  1.0000
  C   C59       1.0  0.38570  0.85427  0.37428  1.0000
  C   C60       1.0  0.62372  0.15195  0.37426  1.0000
  H   H35       1.0  0.38128  0.82053  0.38713  1.0000
  H   H36       1.0  0.62808  0.18568  0.38708  1.0000
  C   C61       1.0  0.23337  0.50761  0.41706  1.0000
  C   C62       1.0  0.27116  0.46766  0.34377  1.0000
  N   N13       1.0  0.27174  0.50024  0.40323  1.0000
  C   C63       1.0  0.23685  0.53891  0.49449  1.0000
  C   C64       1.0  0.28274  0.56398  0.55466  1.0000
  C   C65       1.0  0.27278  0.59426  0.48647  1.0000
  H   H37       1.0  0.20327  0.52885  0.53181  1.0000
  H   H38       1.0  0.25998  0.61781  0.51452  1.0000
  H   H39       1.0  0.29684  0.60671  0.42796  1.0000
  H   H40       1.0  0.31381  0.55914  0.53856  1.0000
  H   H41       1.0  0.27682  0.57017  0.62446  1.0000
  N   N14       1.0  0.31424  0.46932  0.33187  1.0000
  C   C66       1.0  0.50011  0.72731  0.41668  1.0000
  C   C67       1.0  0.54016  0.80513  0.34369  1.0000
  N   N15       1.0  0.50751  0.77307  0.40300  1.0000
  C   C68       1.0  0.46872  0.69941  0.49397  1.0000
  C   C69       1.0  0.44364  0.72018  0.55419  1.0000
  C   C70       1.0  0.41339  0.68003  0.48582  1.0000
  H   H42       1.0  0.47874  0.67584  0.53123  1.0000
  H   H43       1.0  0.38980  0.64365  0.51370  1.0000
  H   H44       1.0  0.40100  0.69173  0.42736  1.0000
  H   H45       1.0  0.44853  0.75613  0.53823  1.0000
  H   H46       1.0  0.43738  0.70799  0.62394  1.0000
  N   N16       1.0  0.53851  0.84655  0.33185  1.0000
  C   C71       1.0  0.28052  0.77431  0.41676  1.0000
  C   C72       1.0  0.20273  0.73655  0.34368  1.0000
  N   N17       1.0  0.23476  0.73597  0.40307  1.0000
  C   C73       1.0  0.30831  0.77086  0.49430  1.0000
  C   C74       1.0  0.28748  0.72500  0.55452  1.0000
  C   C75       1.0  0.32776  0.73496  0.48641  1.0000
  H   H47       1.0  0.33179  0.80446  0.53160  1.0000
  H   H48       1.0  0.36410  0.74778  0.51453  1.0000
  H   H49       1.0  0.31618  0.71087  0.42794  1.0000
  H   H50       1.0  0.25159  0.69391  0.53840  1.0000
  H   H51       1.0  0.29956  0.73095  0.62434  1.0000
  N   N18       1.0  0.16130  0.69348  0.33185  1.0000
  C   C76       1.0  0.77586  0.49849  0.41661  1.0000
  C   C77       1.0  0.73809  0.53849  0.34345  1.0000
  N   N19       1.0  0.73751  0.50590  0.40289  1.0000
  C   C78       1.0  0.77242  0.46728  0.49419  1.0000
  C   C79       1.0  0.72656  0.44226  0.55443  1.0000
  C   C80       1.0  0.73651  0.41192  0.48636  1.0000
  H   H52       1.0  0.80602  0.47740  0.53149  1.0000
  H   H53       1.0  0.74934  0.38842  0.51451  1.0000
  H   H54       1.0  0.71242  0.39939  0.42790  1.0000
  H   H55       1.0  0.69547  0.44706  0.53829  1.0000
  H   H56       1.0  0.73252  0.43616  0.62426  1.0000
  N   N20       1.0  0.69502  0.53684  0.33159  1.0000
  C   C81       1.0  0.50923  0.27894  0.41697  1.0000
  C   C82       1.0  0.46920  0.20114  0.34387  1.0000
  N   N21       1.0  0.50183  0.23318  0.40323  1.0000
  C   C83       1.0  0.54053  0.30676  0.49440  1.0000
  C   C84       1.0  0.56563  0.28597  0.55454  1.0000
  C   C85       1.0  0.59588  0.32621  0.48631  1.0000
  H   H57       1.0  0.53047  0.33028  0.53171  1.0000
  H   H58       1.0  0.61943  0.36256  0.51434  1.0000
  H   H59       1.0  0.60833  0.31459  0.42781  1.0000
  H   H60       1.0  0.56080  0.25006  0.53846  1.0000
  H   H61       1.0  0.57184  0.29809  0.62433  1.0000
  N   N22       1.0  0.47089  0.15974  0.33200  1.0000
  C   C86       1.0  0.72886  0.23188  0.41695  1.0000
  C   C87       1.0  0.80666  0.26962  0.34384  1.0000
  N   N23       1.0  0.77462  0.27022  0.40319  1.0000
  C   C88       1.0  0.70103  0.23540  0.49433  1.0000
  C   C89       1.0  0.72183  0.28130  0.55445  1.0000
  C   C90       1.0  0.68162  0.27133  0.48616  1.0000
  H   H62       1.0  0.67748  0.20183  0.53165  1.0000
  H   H63       1.0  0.64527  0.25855  0.51415  1.0000
  H   H64       1.0  0.69327  0.29539  0.42765  1.0000
  H   H65       1.0  0.75776  0.31236  0.53837  1.0000
  H   H66       1.0  0.70969  0.27540  0.62422  1.0000
  N   N24       1.0  0.84807  0.31269  0.33193  1.0000
