data_image0
_chemical_formula_structural       C4OC4OH4N2C2NC3H2NH2CHC2NC3H2NH2CHC2HC2HN2C2HC3NHNH2CHC2HC3NHNH2CHC4OC4OH4N2C2NC3H2NH2CHC2NC3H2NH2CHC2HC2HN2C2HC3NHNH2CHC2HC3NHNH2CHC4OC4OH4N2C2NC3H2NH2CHC2NC3H2NH2CHC2HC2HN2C2HC3NHNH2CHC2HC3NHNH2CHC4OC4OH4N2C2NC3H2NH2CHC2NC3H2NH2CHC2HC2HN2C2HC3NHNH2CHC2HC3NHNH2CH
_chemical_formula_sum              "C144 O8 H104 N48"
_cell_length_a       39.291
_cell_length_b       39.291
_cell_length_c       15.0456
_cell_angle_alpha    90
_cell_angle_beta     90
_cell_angle_gamma    90

_space_group_name_H-M_alt    "P 1"
_space_group_IT_number       1

loop_
  _space_group_symop_operation_xyz
  'x, y, z'

loop_
  _atom_site_type_symbol
  _atom_site_label
  _atom_site_symmetry_multiplicity
  _atom_site_fract_x
  _atom_site_fract_y
  _atom_site_fract_z
  _atom_site_occupancy
  C   C1        1.0  0.00966  0.48450  0.34064  1.0000
  C   C2        1.0  0.06080  0.43505  0.38290  1.0000
  C   C3        1.0  0.07049  0.46790  0.35535  1.0000
  C   C4        1.0  0.04503  0.49194  0.33460  1.0000
  O   O1        1.0  0.08516  0.41136  0.40228  1.0000
  C   C5        1.0  0.48447  0.00959  0.31985  1.0000
  C   C6        1.0  0.45073  0.00091  0.29423  1.0000
  C   C7        1.0  0.42609  0.02584  0.27356  1.0000
  C   C8        1.0  0.43490  0.06058  0.27738  1.0000
  O   O2        1.0  0.41118  0.08488  0.25778  1.0000
  H   H1        1.0  0.09067  0.39987  0.34601  1.0000
  H   H2        1.0  0.39956  0.09033  0.31393  1.0000
  H   H3        1.0  0.05283  0.01482  0.31026  1.0000
  H   H4        1.0  0.44377  0.47606  0.28769  1.0000
  N   N1        1.0  0.39292  0.01888  0.25882  1.0000
  N   N2        1.0  0.10424  0.47385  0.34664  1.0000
  C   C9        1.0  0.49439  0.33759  0.40037  1.0000
  C   C10       1.0  0.46555  0.31702  0.38674  1.0000
  N   N3        1.0  0.46952  0.28346  0.37003  1.0000
  C   C11       1.0  0.99973  0.26661  0.36508  1.0000
  C   C12       1.0  0.97116  0.21334  0.30564  1.0000
  C   C13       1.0  0.97161  0.17726  0.30654  1.0000
  H   H5        1.0  0.45266  0.16436  0.27415  1.0000
  H   H6        1.0  0.44156  0.32709  0.38515  1.0000
  N   N4        1.0  0.94661  0.22883  0.25606  1.0000
  H   H7        1.0  0.94808  0.25266  0.24012  1.0000
  H   H8        1.0  0.92970  0.21559  0.22370  1.0000
  C   C14       1.0  0.49110  0.37328  0.40441  1.0000
  H   H9        1.0  0.46768  0.38427  0.39675  1.0000
  C   C15       1.0  0.15866  0.49871  0.31418  1.0000
  C   C16       1.0  0.17744  0.52480  0.27300  1.0000
  N   N5        1.0  0.21176  0.52299  0.27092  1.0000
  C   C17       1.0  0.23105  0.99822  0.30900  1.0000
  C   C18       1.0  0.28597  0.02990  0.27581  1.0000
  C   C19       1.0  0.32111  0.02615  0.25683  1.0000
  H   H10       1.0  0.33538  0.54764  0.24726  1.0000
  H   H11       1.0  0.16574  0.54479  0.24201  1.0000
  N   N6        1.0  0.27384  0.06226  0.28398  1.0000
  H   H12       1.0  0.25213  0.06706  0.31156  1.0000
  H   H13       1.0  0.28853  0.08191  0.27446  1.0000
  C   C20       1.0  0.12286  0.50015  0.31557  1.0000
  H   H14       1.0  0.11074  0.52067  0.28826  1.0000
  C   C21       1.0  0.00109  0.45070  0.36605  1.0000
  C   C22       1.0  0.02609  0.42612  0.38656  1.0000
  H   H15       1.0  0.47626  0.44366  0.37239  1.0000
  C   C23       1.0  0.46770  0.07037  0.30515  1.0000
  C   C24       1.0  0.49180  0.04497  0.32599  1.0000
  H   H16       1.0  0.01463  0.05283  0.35053  1.0000
  N   N7        1.0  0.47357  0.10413  0.31377  1.0000
  N   N8        1.0  0.01922  0.39289  0.40060  1.0000
  C   C25       1.0  0.02997  0.28586  0.38185  1.0000
  C   C26       1.0  0.02637  0.32101  0.40077  1.0000
  H   H17       1.0  0.04794  0.33524  0.40965  1.0000
  C   C27       1.0  0.99805  0.23097  0.35022  1.0000
  C   C28       1.0  0.99844  0.15859  0.34586  1.0000
  C   C29       1.0  0.02463  0.17740  0.38650  1.0000
  N   N9        1.0  0.02289  0.21172  0.38811  1.0000
  H   H18       1.0  0.04472  0.16572  0.41713  1.0000
  N   N10       1.0  0.06225  0.27365  0.37252  1.0000
  H   H19       1.0  0.08198  0.28831  0.38118  1.0000
  H   H20       1.0  0.06685  0.25190  0.34488  1.0000
  C   C30       1.0  0.99986  0.12279  0.34474  1.0000
  H   H21       1.0  0.02044  0.11071  0.37188  1.0000
  C   C31       1.0  0.21345  0.97151  0.35448  1.0000
  C   C32       1.0  0.17737  0.97196  0.35372  1.0000
  H   H22       1.0  0.16451  0.95313  0.38669  1.0000
  C   C33       1.0  0.26668  0.99979  0.29379  1.0000
  C   C34       1.0  0.33765  0.99416  0.25846  1.0000
  C   C35       1.0  0.31703  0.96542  0.27302  1.0000
  N   N11       1.0  0.28348  0.96953  0.28973  1.0000
  H   H23       1.0  0.32705  0.94142  0.27544  1.0000
  N   N12       1.0  0.22902  0.94708  0.40432  1.0000
  H   H24       1.0  0.21573  0.93054  0.43778  1.0000
  H   H25       1.0  0.25277  0.94897  0.42083  1.0000
  C   C36       1.0  0.37334  0.99074  0.25459  1.0000
  H   H26       1.0  0.38431  0.96739  0.26353  1.0000
  C   C37       1.0  0.00966  0.98450  0.34064  1.0000
  C   C38       1.0  0.06080  0.93505  0.38290  1.0000
  C   C39       1.0  0.07049  0.96790  0.35535  1.0000
  C   C40       1.0  0.04503  0.99194  0.33460  1.0000
  O   O3        1.0  0.08516  0.91137  0.40228  1.0000
  C   C41       1.0  0.48447  0.50959  0.31985  1.0000
  C   C42       1.0  0.45073  0.50091  0.29423  1.0000
  C   C43       1.0  0.42609  0.52584  0.27356  1.0000
  C   C44       1.0  0.43490  0.56058  0.27738  1.0000
  O   O4        1.0  0.41118  0.58488  0.25778  1.0000
  H   H27       1.0  0.09067  0.89986  0.34601  1.0000
  H   H28       1.0  0.39956  0.59033  0.31393  1.0000
  H   H29       1.0  0.05283  0.51483  0.31026  1.0000
  H   H30       1.0  0.44377  0.97606  0.28769  1.0000
  N   N13       1.0  0.39292  0.51888  0.25882  1.0000
  N   N14       1.0  0.10424  0.97385  0.34664  1.0000
  C   C45       1.0  0.49439  0.83759  0.40037  1.0000
  C   C46       1.0  0.46555  0.81703  0.38674  1.0000
  N   N15       1.0  0.46952  0.78346  0.37003  1.0000
  C   C47       1.0  0.99973  0.76661  0.36508  1.0000
  C   C48       1.0  0.97116  0.71334  0.30564  1.0000
  C   C49       1.0  0.97161  0.67726  0.30654  1.0000
  H   H31       1.0  0.45266  0.66436  0.27415  1.0000
  H   H32       1.0  0.44156  0.82709  0.38515  1.0000
  N   N16       1.0  0.94661  0.72884  0.25606  1.0000
  H   H33       1.0  0.94808  0.75267  0.24012  1.0000
  H   H34       1.0  0.92970  0.71559  0.22370  1.0000
  C   C50       1.0  0.49110  0.87328  0.40441  1.0000
  H   H35       1.0  0.46768  0.88427  0.39675  1.0000
  C   C51       1.0  0.15866  0.99871  0.31418  1.0000
  C   C52       1.0  0.17744  0.02480  0.27300  1.0000
  N   N17       1.0  0.21176  0.02299  0.27092  1.0000
  C   C53       1.0  0.23105  0.49822  0.30900  1.0000
  C   C54       1.0  0.28597  0.52990  0.27581  1.0000
  C   C55       1.0  0.32111  0.52615  0.25683  1.0000
  H   H36       1.0  0.33538  0.04764  0.24726  1.0000
  H   H37       1.0  0.16574  0.04479  0.24201  1.0000
  N   N18       1.0  0.27384  0.56226  0.28398  1.0000
  H   H38       1.0  0.25213  0.56706  0.31156  1.0000
  H   H39       1.0  0.28853  0.58191  0.27446  1.0000
  C   C56       1.0  0.12286  0.00015  0.31557  1.0000
  H   H40       1.0  0.11074  0.02067  0.28826  1.0000
  C   C57       1.0  0.00109  0.95070  0.36605  1.0000
  C   C58       1.0  0.02609  0.92612  0.38656  1.0000
  H   H41       1.0  0.47626  0.94366  0.37239  1.0000
  C   C59       1.0  0.46770  0.57037  0.30515  1.0000
  C   C60       1.0  0.49180  0.54497  0.32599  1.0000
  H   H42       1.0  0.01463  0.55283  0.35053  1.0000
  N   N19       1.0  0.47357  0.60413  0.31377  1.0000
  N   N20       1.0  0.01922  0.89289  0.40060  1.0000
  C   C61       1.0  0.02997  0.78586  0.38185  1.0000
  C   C62       1.0  0.02637  0.82101  0.40077  1.0000
  H   H43       1.0  0.04794  0.83524  0.40965  1.0000
  C   C63       1.0  0.99805  0.73098  0.35022  1.0000
  C   C64       1.0  0.99844  0.65859  0.34586  1.0000
  C   C65       1.0  0.02463  0.67740  0.38650  1.0000
  N   N21       1.0  0.02289  0.71172  0.38811  1.0000
  H   H44       1.0  0.04472  0.66572  0.41713  1.0000
  N   N22       1.0  0.06225  0.77365  0.37252  1.0000
  H   H45       1.0  0.08198  0.78831  0.38118  1.0000
  H   H46       1.0  0.06685  0.75190  0.34488  1.0000
  C   C66       1.0  0.99986  0.62279  0.34474  1.0000
  H   H47       1.0  0.02044  0.61071  0.37188  1.0000
  C   C67       1.0  0.21345  0.47152  0.35448  1.0000
  C   C68       1.0  0.17737  0.47196  0.35372  1.0000
  H   H48       1.0  0.16451  0.45313  0.38669  1.0000
  C   C69       1.0  0.26668  0.49980  0.29379  1.0000
  C   C70       1.0  0.33765  0.49416  0.25846  1.0000
  C   C71       1.0  0.31703  0.46542  0.27302  1.0000
  N   N23       1.0  0.28348  0.46953  0.28973  1.0000
  H   H49       1.0  0.32705  0.44142  0.27544  1.0000
  N   N24       1.0  0.22902  0.44708  0.40432  1.0000
  H   H50       1.0  0.21573  0.43054  0.43778  1.0000
  H   H51       1.0  0.25277  0.44897  0.42083  1.0000
  C   C72       1.0  0.37334  0.49074  0.25459  1.0000
  H   H52       1.0  0.38431  0.46739  0.26353  1.0000
  C   C73       1.0  0.50966  0.48450  0.34064  1.0000
  C   C74       1.0  0.56080  0.43505  0.38290  1.0000
  C   C75       1.0  0.57049  0.46790  0.35535  1.0000
  C   C76       1.0  0.54503  0.49194  0.33460  1.0000
  O   O5        1.0  0.58516  0.41136  0.40228  1.0000
  C   C77       1.0  0.98447  0.00959  0.31985  1.0000
  C   C78       1.0  0.95073  0.00091  0.29423  1.0000
  C   C79       1.0  0.92609  0.02584  0.27356  1.0000
  C   C80       1.0  0.93490  0.06058  0.27738  1.0000
  O   O6        1.0  0.91118  0.08488  0.25778  1.0000
  H   H53       1.0  0.59067  0.39987  0.34601  1.0000
  H   H54       1.0  0.89956  0.09033  0.31393  1.0000
  H   H55       1.0  0.55283  0.01482  0.31026  1.0000
  H   H56       1.0  0.94377  0.47606  0.28769  1.0000
  N   N25       1.0  0.89292  0.01888  0.25882  1.0000
  N   N26       1.0  0.60424  0.47385  0.34664  1.0000
  C   C81       1.0  0.99439  0.33759  0.40037  1.0000
  C   C82       1.0  0.96556  0.31702  0.38674  1.0000
  N   N27       1.0  0.96952  0.28346  0.37003  1.0000
  C   C83       1.0  0.49973  0.26661  0.36508  1.0000
  C   C84       1.0  0.47116  0.21334  0.30564  1.0000
  C   C85       1.0  0.47161  0.17726  0.30654  1.0000
  H   H57       1.0  0.95266  0.16436  0.27415  1.0000
  H   H58       1.0  0.94156  0.32709  0.38515  1.0000
  N   N28       1.0  0.44661  0.22883  0.25606  1.0000
  H   H59       1.0  0.44808  0.25266  0.24012  1.0000
  H   H60       1.0  0.42970  0.21559  0.22370  1.0000
  C   C86       1.0  0.99110  0.37328  0.40441  1.0000
  H   H61       1.0  0.96768  0.38427  0.39675  1.0000
  C   C87       1.0  0.65866  0.49871  0.31418  1.0000
  C   C88       1.0  0.67744  0.52480  0.27300  1.0000
  N   N29       1.0  0.71176  0.52299  0.27092  1.0000
  C   C89       1.0  0.73106  0.99822  0.30900  1.0000
  C   C90       1.0  0.78597  0.02990  0.27581  1.0000
  C   C91       1.0  0.82111  0.02615  0.25683  1.0000
  H   H62       1.0  0.83539  0.54764  0.24726  1.0000
  H   H63       1.0  0.66574  0.54479  0.24201  1.0000
  N   N30       1.0  0.77384  0.06226  0.28398  1.0000
  H   H64       1.0  0.75213  0.06706  0.31156  1.0000
  H   H65       1.0  0.78853  0.08191  0.27446  1.0000
  C   C92       1.0  0.62287  0.50015  0.31557  1.0000
  H   H66       1.0  0.61074  0.52067  0.28826  1.0000
  C   C93       1.0  0.50109  0.45070  0.36605  1.0000
  C   C94       1.0  0.52609  0.42612  0.38656  1.0000
  H   H67       1.0  0.97625  0.44366  0.37239  1.0000
  C   C95       1.0  0.96770  0.07037  0.30515  1.0000
  C   C96       1.0  0.99180  0.04497  0.32599  1.0000
  H   H68       1.0  0.51463  0.05283  0.35053  1.0000
  N   N31       1.0  0.97357  0.10413  0.31377  1.0000
  N   N32       1.0  0.51922  0.39289  0.40060  1.0000
  C   C97       1.0  0.52997  0.28586  0.38185  1.0000
  C   C98       1.0  0.52637  0.32101  0.40077  1.0000
  H   H69       1.0  0.54794  0.33524  0.40965  1.0000
  C   C99       1.0  0.49805  0.23097  0.35022  1.0000
  C   C100      1.0  0.49844  0.15859  0.34586  1.0000
  C   C101      1.0  0.52463  0.17740  0.38650  1.0000
  N   N33       1.0  0.52289  0.21172  0.38811  1.0000
  H   H70       1.0  0.54472  0.16572  0.41713  1.0000
  N   N34       1.0  0.56225  0.27365  0.37252  1.0000
  H   H71       1.0  0.58198  0.28831  0.38118  1.0000
  H   H72       1.0  0.56685  0.25190  0.34488  1.0000
  C   C102      1.0  0.49986  0.12279  0.34474  1.0000
  H   H73       1.0  0.52044  0.11071  0.37188  1.0000
  C   C103      1.0  0.71345  0.97151  0.35448  1.0000
  C   C104      1.0  0.67737  0.97196  0.35372  1.0000
  H   H74       1.0  0.66451  0.95313  0.38669  1.0000
  C   C105      1.0  0.76668  0.99979  0.29379  1.0000
  C   C106      1.0  0.83765  0.99416  0.25846  1.0000
  C   C107      1.0  0.81703  0.96542  0.27302  1.0000
  N   N35       1.0  0.78349  0.96953  0.28973  1.0000
  H   H75       1.0  0.82705  0.94142  0.27544  1.0000
  N   N36       1.0  0.72902  0.94708  0.40432  1.0000
  H   H76       1.0  0.71573  0.93054  0.43778  1.0000
  H   H77       1.0  0.75277  0.94897  0.42083  1.0000
  C   C108      1.0  0.87334  0.99074  0.25459  1.0000
  H   H78       1.0  0.88431  0.96739  0.26353  1.0000
  C   C109      1.0  0.50966  0.98450  0.34064  1.0000
  C   C110      1.0  0.56080  0.93505  0.38290  1.0000
  C   C111      1.0  0.57049  0.96790  0.35535  1.0000
  C   C112      1.0  0.54503  0.99194  0.33460  1.0000
  O   O7        1.0  0.58516  0.91137  0.40228  1.0000
  C   C113      1.0  0.98447  0.50959  0.31985  1.0000
  C   C114      1.0  0.95073  0.50091  0.29423  1.0000
  C   C115      1.0  0.92609  0.52584  0.27356  1.0000
  C   C116      1.0  0.93490  0.56058  0.27738  1.0000
  O   O8        1.0  0.91118  0.58488  0.25778  1.0000
  H   H79       1.0  0.59067  0.89986  0.34601  1.0000
  H   H80       1.0  0.89956  0.59033  0.31393  1.0000
  H   H81       1.0  0.55283  0.51483  0.31026  1.0000
  H   H82       1.0  0.94377  0.97606  0.28769  1.0000
  N   N37       1.0  0.89292  0.51888  0.25882  1.0000
  N   N38       1.0  0.60424  0.97385  0.34664  1.0000
  C   C117      1.0  0.99439  0.83759  0.40037  1.0000
  C   C118      1.0  0.96556  0.81703  0.38674  1.0000
  N   N39       1.0  0.96952  0.78346  0.37003  1.0000
  C   C119      1.0  0.49973  0.76661  0.36508  1.0000
  C   C120      1.0  0.47116  0.71334  0.30564  1.0000
  C   C121      1.0  0.47161  0.67726  0.30654  1.0000
  H   H83       1.0  0.95266  0.66436  0.27415  1.0000
  H   H84       1.0  0.94156  0.82709  0.38515  1.0000
  N   N40       1.0  0.44661  0.72884  0.25606  1.0000
  H   H85       1.0  0.44808  0.75267  0.24012  1.0000
  H   H86       1.0  0.42970  0.71559  0.22370  1.0000
  C   C122      1.0  0.99110  0.87328  0.40441  1.0000
  H   H87       1.0  0.96768  0.88427  0.39675  1.0000
  C   C123      1.0  0.65866  0.99871  0.31418  1.0000
  C   C124      1.0  0.67744  0.02480  0.27300  1.0000
  N   N41       1.0  0.71176  0.02299  0.27092  1.0000
  C   C125      1.0  0.73106  0.49822  0.30900  1.0000
  C   C126      1.0  0.78597  0.52990  0.27581  1.0000
  C   C127      1.0  0.82111  0.52615  0.25683  1.0000
  H   H88       1.0  0.83539  0.04764  0.24726  1.0000
  H   H89       1.0  0.66574  0.04479  0.24201  1.0000
  N   N42       1.0  0.77384  0.56226  0.28398  1.0000
  H   H90       1.0  0.75213  0.56706  0.31156  1.0000
  H   H91       1.0  0.78853  0.58191  0.27446  1.0000
  C   C128      1.0  0.62287  0.00015  0.31557  1.0000
  H   H92       1.0  0.61074  0.02067  0.28826  1.0000
  C   C129      1.0  0.50109  0.95070  0.36605  1.0000
  C   C130      1.0  0.52609  0.92612  0.38656  1.0000
  H   H93       1.0  0.97625  0.94366  0.37239  1.0000
  C   C131      1.0  0.96770  0.57037  0.30515  1.0000
  C   C132      1.0  0.99180  0.54497  0.32599  1.0000
  H   H94       1.0  0.51463  0.55283  0.35053  1.0000
  N   N43       1.0  0.97357  0.60413  0.31377  1.0000
  N   N44       1.0  0.51922  0.89289  0.40060  1.0000
  C   C133      1.0  0.52997  0.78586  0.38185  1.0000
  C   C134      1.0  0.52637  0.82101  0.40077  1.0000
  H   H95       1.0  0.54794  0.83524  0.40965  1.0000
  C   C135      1.0  0.49805  0.73098  0.35022  1.0000
  C   C136      1.0  0.49844  0.65859  0.34586  1.0000
  C   C137      1.0  0.52463  0.67740  0.38650  1.0000
  N   N45       1.0  0.52289  0.71172  0.38811  1.0000
  H   H96       1.0  0.54472  0.66572  0.41713  1.0000
  N   N46       1.0  0.56225  0.77365  0.37252  1.0000
  H   H97       1.0  0.58198  0.78831  0.38118  1.0000
  H   H98       1.0  0.56685  0.75190  0.34488  1.0000
  C   C138      1.0  0.49986  0.62279  0.34474  1.0000
  H   H99       1.0  0.52044  0.61071  0.37188  1.0000
  C   C139      1.0  0.71345  0.47152  0.35448  1.0000
  C   C140      1.0  0.67737  0.47196  0.35372  1.0000
  H   H100      1.0  0.66451  0.45313  0.38669  1.0000
  C   C141      1.0  0.76668  0.49980  0.29379  1.0000
  C   C142      1.0  0.83765  0.49416  0.25846  1.0000
  C   C143      1.0  0.81703  0.46542  0.27302  1.0000
  N   N47       1.0  0.78349  0.46953  0.28973  1.0000
  H   H101      1.0  0.82705  0.44142  0.27544  1.0000
  N   N48       1.0  0.72902  0.44708  0.40432  1.0000
  H   H102      1.0  0.71573  0.43054  0.43778  1.0000
  H   H103      1.0  0.75277  0.44897  0.42083  1.0000
  C   C144      1.0  0.87334  0.49074  0.25459  1.0000
  H   H104      1.0  0.88431  0.46739  0.26353  1.0000
