data_image0
_chemical_formula_structural       NC3O2HNC3O2HNC3O2HNC3O2HCNC2O2HCNC2O2HCNC2O2HCNC2O2HCNC2O2HCNC2O2HCNC2O2HCNC2O2HNC3O2HNC3O2HNC3O2HNC3O2HNC3O2HNC3O2HNC3O2HNC3O2HCNC2O2HCNC2O2HCNC2O2HCNC2O2HCNC2O2HCNC2O2HCNC2O2HCNC2O2HCNC2O2HCNC2O2HC6H3C6H3C6H3C6H3C6H3C6H3C6H3C6H3C6H3C6H3C6H3C6H3C6H3C6H3C6H3C6H3C6H3C6H3C6H3C6H3CNC2O2HCNC2O2HCNC2O2HCNC2O2HNC3O2HNC3O2HNC3O2HNC3O2HNC3O2HNC3O2HNC3O2HNC3O2HCNC2O2HCNC2O2HCNC2O2HCNC2O2HCNC2O2HCNC2O2HCNC2O2HCNC2O2HNC3O2HNC3O2HNC3O2HNC3O2HNC3O2HNC3O2HNC3O2HNC3O2HNC3O2HNC3O2H
_chemical_formula_sum              "N60 C300 O120 H120"
_cell_length_a       44.011
_cell_length_b       44.011
_cell_length_c       14.8649
_cell_angle_alpha    90
_cell_angle_beta     90
_cell_angle_gamma    90

_space_group_name_H-M_alt    "P 1"
_space_group_IT_number       1

loop_
  _space_group_symop_operation_xyz
  'x, y, z'

loop_
  _atom_site_type_symbol
  _atom_site_label
  _atom_site_symmetry_multiplicity
  _atom_site_fract_x
  _atom_site_fract_y
  _atom_site_fract_z
  _atom_site_occupancy
  N   N1        1.0  0.32372  0.05878  0.27093  1.0000
  C   C1        1.0  0.35312  0.06778  0.26352  1.0000
  C   C2        1.0  0.37431  0.05532  0.32529  1.0000
  C   C3        1.0  0.36081  0.08752  0.19421  1.0000
  O   O1        1.0  0.34332  0.10821  0.17618  1.0000
  O   O2        1.0  0.37783  0.07966  0.13223  1.0000
  H   H1        1.0  0.38977  0.06345  0.13290  1.0000
  N   N2        1.0  0.67809  0.98105  0.28555  1.0000
  C   C4        1.0  0.64786  0.97529  0.27660  1.0000
  C   C5        1.0  0.63430  0.95551  0.34054  1.0000
  C   C6        1.0  0.63283  0.98696  0.20255  1.0000
  O   O3        1.0  0.64024  0.01201  0.17387  1.0000
  O   O4        1.0  0.62065  0.96866  0.15069  1.0000
  H   H2        1.0  0.61196  0.97372  0.09904  1.0000
  N   N3        1.0  0.95088  0.32375  0.26719  1.0000
  C   C7        1.0  0.94206  0.35320  0.25924  1.0000
  C   C8        1.0  0.95405  0.37430  0.32206  1.0000
  C   C9        1.0  0.92297  0.36107  0.18859  1.0000
  O   O5        1.0  0.90265  0.34352  0.16757  1.0000
  O   O6        1.0  0.93141  0.37813  0.12736  1.0000
  H   H3        1.0  0.94757  0.39013  0.12954  1.0000
  N   N4        1.0  0.02775  0.67805  0.29122  1.0000
  C   C10       1.0  0.03356  0.64786  0.28151  1.0000
  C   C11       1.0  0.05338  0.63414  0.34503  1.0000
  C   C12       1.0  0.02195  0.63309  0.20695  1.0000
  O   O7        1.0  0.99673  0.64028  0.17916  1.0000
  O   O8        1.0  0.04036  0.62157  0.15408  1.0000
  H   H4        1.0  0.03533  0.61312  0.10205  1.0000
  C   C13       1.0  0.19603  0.54070  0.35178  1.0000
  N   N5        1.0  0.14557  0.53695  0.29677  1.0000
  C   C14       1.0  0.17491  0.52759  0.29106  1.0000
  C   C15       1.0  0.18273  0.50780  0.22228  1.0000
  O   O9        1.0  0.19854  0.51812  0.16201  1.0000
  O   O10       1.0  0.16594  0.48674  0.19864  1.0000
  H   H5        1.0  0.15264  0.47763  0.23434  1.0000
  C   C16       1.0  0.81325  0.46673  0.33282  1.0000
  N   N6        1.0  0.85677  0.44103  0.27704  1.0000
  C   C17       1.0  0.82656  0.44657  0.26947  1.0000
  C   C18       1.0  0.81096  0.43325  0.19841  1.0000
  O   O11       1.0  0.81739  0.40722  0.17697  1.0000
  O   O12       1.0  0.79925  0.44857  0.13786  1.0000
  H   H6        1.0  0.79580  0.46838  0.14053  1.0000
  C   C19       1.0  0.54273  0.81352  0.34106  1.0000
  N   N7        1.0  0.56803  0.85732  0.28555  1.0000
  C   C20       1.0  0.56204  0.82724  0.27623  1.0000
  C   C21       1.0  0.57387  0.81216  0.20189  1.0000
  O   O13       1.0  0.59974  0.81826  0.17800  1.0000
  O   O14       1.0  0.55727  0.80151  0.14263  1.0000
  H   H7        1.0  0.53744  0.79849  0.14784  1.0000
  C   C22       1.0  0.46665  0.19616  0.33190  1.0000
  N   N8        1.0  0.44106  0.15226  0.27848  1.0000
  C   C23       1.0  0.44662  0.18241  0.26905  1.0000
  C   C24       1.0  0.43350  0.19751  0.19671  1.0000
  O   O15       1.0  0.40747  0.19082  0.17578  1.0000
  O   O16       1.0  0.44892  0.20847  0.13528  1.0000
  H   H8        1.0  0.46873  0.21195  0.13798  1.0000
  C   C25       1.0  0.21141  0.08114  0.34966  1.0000
  N   N9        1.0  0.17940  0.12054  0.29228  1.0000
  C   C26       1.0  0.18929  0.09117  0.28703  1.0000
  C   C27       1.0  0.17961  0.07344  0.21596  1.0000
  O   O17       1.0  0.18824  0.08101  0.14112  1.0000
  O   O18       1.0  0.15404  0.06186  0.21710  1.0000
  H   H9        1.0  0.14409  0.05669  0.26666  1.0000
  C   C28       1.0  0.79817  0.92818  0.35312  1.0000
  N   N10       1.0  0.82994  0.88887  0.29386  1.0000
  C   C29       1.0  0.82014  0.91832  0.28981  1.0000
  C   C30       1.0  0.82952  0.93617  0.21870  1.0000
  O   O19       1.0  0.81838  0.93035  0.14542  1.0000
  O   O20       1.0  0.85596  0.94552  0.21506  1.0000
  H   H10       1.0  0.86747  0.94932  0.26270  1.0000
  C   C31       1.0  0.92791  0.21141  0.34714  1.0000
  N   N11       1.0  0.88863  0.17924  0.28962  1.0000
  C   C32       1.0  0.91804  0.18910  0.28489  1.0000
  C   C33       1.0  0.93596  0.17928  0.21429  1.0000
  O   O21       1.0  0.92909  0.18895  0.14000  1.0000
  O   O22       1.0  0.94638  0.15322  0.21498  1.0000
  H   H11       1.0  0.95108  0.14292  0.26434  1.0000
  C   C34       1.0  0.08074  0.79790  0.35785  1.0000
  N   N12       1.0  0.11960  0.83016  0.29871  1.0000
  C   C35       1.0  0.09017  0.82029  0.29512  1.0000
  C   C36       1.0  0.07204  0.83004  0.22483  1.0000
  O   O23       1.0  0.07064  0.81273  0.16065  1.0000
  O   O24       1.0  0.07018  0.85719  0.20482  1.0000
  H   H12       1.0  0.07207  0.87229  0.24385  1.0000
  N   N13       1.0  0.29023  0.60366  0.27698  1.0000
  C   C37       1.0  0.30090  0.63257  0.27085  1.0000
  C   C38       1.0  0.32110  0.64281  0.33886  1.0000
  C   C39       1.0  0.29138  0.65029  0.19879  1.0000
  O   O25       1.0  0.26496  0.64827  0.17416  1.0000
  O   O26       1.0  0.30941  0.65961  0.14127  1.0000
  H   H13       1.0  0.32945  0.65981  0.14695  1.0000
  N   N14       1.0  0.71703  0.40699  0.27262  1.0000
  C   C40       1.0  0.70651  0.37802  0.26707  1.0000
  C   C41       1.0  0.68743  0.36746  0.33740  1.0000
  C   C42       1.0  0.71538  0.36045  0.19402  1.0000
  O   O27       1.0  0.74134  0.36302  0.16578  1.0000
  O   O28       1.0  0.69684  0.35091  0.13823  1.0000
  H   H14       1.0  0.67689  0.35036  0.14602  1.0000
  N   N15       1.0  0.60218  0.71741  0.27488  1.0000
  C   C43       1.0  0.63113  0.70683  0.26919  1.0000
  C   C44       1.0  0.64162  0.68753  0.33909  1.0000
  C   C45       1.0  0.64875  0.71588  0.19644  1.0000
  O   O29       1.0  0.64621  0.74192  0.16875  1.0000
  O   O30       1.0  0.65835  0.69748  0.14035  1.0000
  H   H15       1.0  0.65890  0.67752  0.14773  1.0000
  N   N16       1.0  0.40641  0.29171  0.26690  1.0000
  C   C46       1.0  0.37748  0.30234  0.26107  1.0000
  C   C47       1.0  0.36723  0.32223  0.32983  1.0000
  C   C48       1.0  0.35965  0.29275  0.18939  1.0000
  O   O31       1.0  0.36215  0.26654  0.16313  1.0000
  O   O32       1.0  0.34967  0.31074  0.13271  1.0000
  H   H16       1.0  0.34907  0.33075  0.13897  1.0000
  N   N17       1.0  0.24164  0.94786  0.27635  1.0000
  C   C49       1.0  0.23730  0.91730  0.27124  1.0000
  C   C50       1.0  0.21575  0.90397  0.33033  1.0000
  C   C51       1.0  0.25334  0.90130  0.20626  1.0000
  O   O33       1.0  0.28006  0.90773  0.19430  1.0000
  O   O34       1.0  0.24039  0.88949  0.14125  1.0000
  H   H17       1.0  0.22062  0.88591  0.13759  1.0000
  N   N18       1.0  0.76615  0.06115  0.27698  1.0000
  C   C52       1.0  0.77050  0.09172  0.27028  1.0000
  C   C53       1.0  0.79242  0.10540  0.32758  1.0000
  C   C54       1.0  0.75422  0.10742  0.20524  1.0000
  O   O35       1.0  0.72760  0.10065  0.19303  1.0000
  O   O36       1.0  0.76688  0.11907  0.13945  1.0000
  H   H18       1.0  0.78661  0.12280  0.13517  1.0000
  N   N19       1.0  0.06145  0.24190  0.27546  1.0000
  C   C55       1.0  0.09205  0.23770  0.27056  1.0000
  C   C56       1.0  0.10546  0.21627  0.32989  1.0000
  C   C57       1.0  0.10804  0.25372  0.20557  1.0000
  O   O37       1.0  0.10130  0.28028  0.19213  1.0000
  O   O38       1.0  0.12000  0.24079  0.14074  1.0000
  H   H19       1.0  0.12379  0.22105  0.13740  1.0000
  N   N20       1.0  0.94789  0.76601  0.28190  1.0000
  C   C58       1.0  0.91735  0.77042  0.27480  1.0000
  C   C59       1.0  0.90365  0.79238  0.33188  1.0000
  C   C60       1.0  0.90172  0.75414  0.20962  1.0000
  O   O39       1.0  0.90842  0.72748  0.19770  1.0000
  O   O40       1.0  0.89021  0.76679  0.14359  1.0000
  H   H20       1.0  0.88654  0.78653  0.13914  1.0000
  C   C61       1.0  0.28207  0.46956  0.35441  1.0000
  N   N21       1.0  0.30695  0.42539  0.29673  1.0000
  C   C62       1.0  0.30265  0.45607  0.29279  1.0000
  C   C63       1.0  0.31620  0.47198  0.22341  1.0000
  O   O41       1.0  0.30130  0.47446  0.15445  1.0000
  O   O42       1.0  0.34394  0.47090  0.21120  1.0000
  H   H21       1.0  0.35748  0.46794  0.25447  1.0000
  C   C64       1.0  0.72956  0.54045  0.33712  1.0000
  N   N22       1.0  0.73367  0.59190  0.28680  1.0000
  C   C65       1.0  0.74149  0.56221  0.27565  1.0000
  C   C66       1.0  0.75982  0.55485  0.20267  1.0000
  O   O43       1.0  0.78021  0.57228  0.18132  1.0000
  O   O44       1.0  0.75116  0.53769  0.14197  1.0000
  H   H22       1.0  0.73499  0.52575  0.14480  1.0000
  C   C67       1.0  0.46871  0.73011  0.34013  1.0000
  N   N23       1.0  0.41741  0.73464  0.28883  1.0000
  C   C68       1.0  0.44716  0.74237  0.27858  1.0000
  C   C69       1.0  0.45477  0.76099  0.20645  1.0000
  O   O45       1.0  0.43762  0.78177  0.18644  1.0000
  O   O46       1.0  0.47204  0.75249  0.14585  1.0000
  H   H23       1.0  0.48379  0.73616  0.14816  1.0000
  C   C70       1.0  0.54019  0.27995  0.33349  1.0000
  N   N24       1.0  0.59168  0.27563  0.28384  1.0000
  C   C71       1.0  0.56198  0.26791  0.27233  1.0000
  C   C72       1.0  0.55461  0.24950  0.19951  1.0000
  O   O47       1.0  0.57211  0.22906  0.17904  1.0000
  O   O48       1.0  0.53775  0.25820  0.13819  1.0000
  H   H24       1.0  0.52586  0.27441  0.14059  1.0000
  C   C73       1.0  0.25720  0.29872  0.34318  1.0000
  N   N25       1.0  0.21059  0.27558  0.29572  1.0000
  C   C74       1.0  0.23048  0.29935  0.28938  1.0000
  C   C75       1.0  0.22475  0.32159  0.22554  1.0000
  O   O49       1.0  0.19867  0.33072  0.21718  1.0000
  O   O50       1.0  0.24057  0.32416  0.15717  1.0000
  H   H25       1.0  0.25895  0.31629  0.15011  1.0000
  C   C76       1.0  0.75182  0.71031  0.34420  1.0000
  N   N26       1.0  0.79817  0.73363  0.29506  1.0000
  C   C77       1.0  0.77831  0.70981  0.28935  1.0000
  C   C78       1.0  0.78376  0.68770  0.22489  1.0000
  O   O51       1.0  0.80983  0.67868  0.21515  1.0000
  O   O52       1.0  0.76765  0.68528  0.15710  1.0000
  H   H26       1.0  0.74921  0.69310  0.15100  1.0000
  C   C79       1.0  0.71001  0.25720  0.34156  1.0000
  N   N27       1.0  0.73329  0.21086  0.29197  1.0000
  C   C80       1.0  0.70948  0.23076  0.28650  1.0000
  C   C81       1.0  0.68734  0.22538  0.22201  1.0000
  O   O53       1.0  0.67807  0.19937  0.21328  1.0000
  O   O54       1.0  0.68509  0.24153  0.15425  1.0000
  H   H27       1.0  0.69307  0.25991  0.14816  1.0000
  C   C82       1.0  0.29886  0.75295  0.34571  1.0000
  N   N28       1.0  0.27515  0.79904  0.29630  1.0000
  C   C83       1.0  0.29911  0.77934  0.29051  1.0000
  C   C84       1.0  0.32113  0.78477  0.22571  1.0000
  O   O55       1.0  0.32996  0.81093  0.21657  1.0000
  O   O56       1.0  0.32320  0.76890  0.15739  1.0000
  H   H28       1.0  0.31541  0.75045  0.15124  1.0000
  C   C85       1.0  0.52605  0.98178  0.33984  1.0000
  N   N29       1.0  0.48083  0.00470  0.28633  1.0000
  C   C86       1.0  0.50153  0.98205  0.27797  1.0000
  C   C87       1.0  0.49855  0.96193  0.20664  1.0000
  O   O57       1.0  0.51840  0.96256  0.14919  1.0000
  O   O58       1.0  0.47354  0.95309  0.17925  1.0000
  H   H29       1.0  0.45694  0.95210  0.21284  1.0000
  C   C88       1.0  0.02834  0.52565  0.33689  1.0000
  N   N30       1.0  0.00550  0.48040  0.28328  1.0000
  C   C89       1.0  0.02840  0.50089  0.27582  1.0000
  C   C90       1.0  0.04901  0.49753  0.20584  1.0000
  O   O59       1.0  0.04945  0.51755  0.14886  1.0000
  O   O60       1.0  0.05738  0.47237  0.17840  1.0000
  H   H30       1.0  0.05765  0.45565  0.21157  1.0000
  C   C91       1.0  0.28135  0.03320  0.33396  1.0000
  C   C92       1.0  0.26132  0.05809  0.33850  1.0000
  C   C93       1.0  0.22947  0.05422  0.34212  1.0000
  C   C94       1.0  0.21777  0.02415  0.33896  1.0000
  C   C95       1.0  0.23729  0.99840  0.33410  1.0000
  C   C96       1.0  0.26905  0.00366  0.33166  1.0000
  H   H31       1.0  0.19474  0.02103  0.34066  1.0000
  H   H32       1.0  0.28374  0.98561  0.32836  1.0000
  H   H33       1.0  0.27030  0.07962  0.34017  1.0000
  C   C97       1.0  0.72766  0.97553  0.34714  1.0000
  C   C98       1.0  0.74808  0.95095  0.34868  1.0000
  C   C99       1.0  0.77990  0.95507  0.34692  1.0000
  C   C100      1.0  0.79112  0.98528  0.34042  1.0000
  C   C101      1.0  0.77119  0.01080  0.33671  1.0000
  C   C102      1.0  0.73946  0.00517  0.33908  1.0000
  H   H34       1.0  0.81410  0.98870  0.33886  1.0000
  H   H35       1.0  0.72453  0.02307  0.33915  1.0000
  H   H36       1.0  0.73939  0.92931  0.35022  1.0000
  C   C103      1.0  0.97589  0.28132  0.33202  1.0000
  C   C104      1.0  0.95103  0.26126  0.33605  1.0000
  C   C105      1.0  0.95493  0.22942  0.33998  1.0000
  C   C106      1.0  0.98507  0.21778  0.33743  1.0000
  C   C107      1.0  0.01082  0.23736  0.33289  1.0000
  C   C108      1.0  0.00547  0.26911  0.33038  1.0000
  H   H37       1.0  0.98824  0.19477  0.33932  1.0000
  H   H38       1.0  0.02348  0.28386  0.32748  1.0000
  H   H39       1.0  0.92950  0.27023  0.33721  1.0000
  C   C109      1.0  0.03329  0.72744  0.35367  1.0000
  C   C110      1.0  0.05791  0.74783  0.35497  1.0000
  C   C111      1.0  0.05382  0.77966  0.35258  1.0000
  C   C112      1.0  0.02363  0.79089  0.34584  1.0000
  C   C113      1.0  0.99812  0.77098  0.34241  1.0000
  C   C114      1.0  0.00368  0.73926  0.34532  1.0000
  H   H40       1.0  0.02024  0.81388  0.34372  1.0000
  H   H41       1.0  0.98576  0.72435  0.34531  1.0000
  H   H42       1.0  0.07953  0.73910  0.35636  1.0000
  C   C115      1.0  0.22778  0.53528  0.35150  1.0000
  C   C116      1.0  0.24790  0.56014  0.34839  1.0000
  C   C117      1.0  0.27975  0.55617  0.34635  1.0000
  C   C118      1.0  0.29137  0.52607  0.34887  1.0000
  C   C119      1.0  0.27172  0.50043  0.35270  1.0000
  C   C120      1.0  0.23997  0.50569  0.35421  1.0000
  H   H43       1.0  0.31440  0.52283  0.34776  1.0000
  H   H44       1.0  0.22531  0.48761  0.35696  1.0000
  H   H45       1.0  0.23903  0.58170  0.34668  1.0000
  C   C121      1.0  0.78173  0.47291  0.33875  1.0000
  C   C122      1.0  0.76072  0.44884  0.34103  1.0000
  C   C123      1.0  0.72904  0.45389  0.34265  1.0000
  C   C124      1.0  0.71851  0.48444  0.34411  1.0000
  C   C125      1.0  0.73914  0.50934  0.34151  1.0000
  C   C126      1.0  0.77069  0.50293  0.34174  1.0000
  H   H46       1.0  0.69563  0.48855  0.34245  1.0000
  H   H47       1.0  0.78605  0.52045  0.34135  1.0000
  H   H48       1.0  0.76883  0.42697  0.34197  1.0000
  C   C127      1.0  0.53639  0.78202  0.34494  1.0000
  C   C128      1.0  0.56042  0.76096  0.34525  1.0000
  C   C129      1.0  0.55527  0.72929  0.34528  1.0000
  C   C130      1.0  0.52470  0.71884  0.34657  1.0000
  C   C131      1.0  0.49985  0.73956  0.34527  1.0000
  C   C132      1.0  0.50634  0.77108  0.34749  1.0000
  H   H49       1.0  0.52051  0.69597  0.34376  1.0000
  H   H50       1.0  0.48888  0.78651  0.34813  1.0000
  H   H51       1.0  0.58231  0.76903  0.34608  1.0000
  C   C133      1.0  0.47277  0.22772  0.33596  1.0000
  C   C134      1.0  0.44864  0.24868  0.33655  1.0000
  C   C135      1.0  0.45361  0.28038  0.33669  1.0000
  C   C136      1.0  0.48413  0.29099  0.33863  1.0000
  C   C137      1.0  0.50908  0.27039  0.33752  1.0000
  C   C138      1.0  0.50275  0.23884  0.33903  1.0000
  H   H52       1.0  0.48820  0.31388  0.33626  1.0000
  H   H53       1.0  0.52030  0.22352  0.33983  1.0000
  H   H54       1.0  0.42680  0.24052  0.33760  1.0000
  C   C139      1.0  0.19119  0.22711  0.34660  1.0000
  C   C140      1.0  0.20001  0.19614  0.34763  1.0000
  C   C141      1.0  0.17872  0.17201  0.34792  1.0000
  C   C142      1.0  0.14754  0.17935  0.34132  1.0000
  C   C143      1.0  0.13740  0.20987  0.33601  1.0000
  C   C144      1.0  0.15963  0.23331  0.33948  1.0000
  H   H55       1.0  0.13192  0.16207  0.34043  1.0000
  H   H56       1.0  0.15263  0.25550  0.34009  1.0000
  H   H57       1.0  0.22267  0.19090  0.34716  1.0000
  C   C145      1.0  0.81780  0.78207  0.34593  1.0000
  C   C146      1.0  0.80914  0.81309  0.34738  1.0000
  C   C147      1.0  0.83057  0.83712  0.34800  1.0000
  C   C148      1.0  0.86171  0.82959  0.34158  1.0000
  C   C149      1.0  0.87170  0.79902  0.33622  1.0000
  C   C150      1.0  0.84933  0.77570  0.33919  1.0000
  H   H58       1.0  0.87743  0.84678  0.34137  1.0000
  H   H59       1.0  0.85620  0.75348  0.34017  1.0000
  H   H60       1.0  0.78651  0.81845  0.34728  1.0000
  C   C151      1.0  0.78179  0.19122  0.34251  1.0000
  C   C152      1.0  0.81277  0.20000  0.34366  1.0000
  C   C153      1.0  0.83691  0.17870  0.34407  1.0000
  C   C154      1.0  0.82949  0.14752  0.33759  1.0000
  C   C155      1.0  0.79895  0.13739  0.33236  1.0000
  C   C156      1.0  0.77555  0.15967  0.33565  1.0000
  H   H61       1.0  0.84674  0.13187  0.33708  1.0000
  H   H62       1.0  0.75335  0.15271  0.33668  1.0000
  H   H63       1.0  0.81801  0.22267  0.34335  1.0000
  C   C157      1.0  0.22667  0.81835  0.34773  1.0000
  C   C158      1.0  0.19572  0.80950  0.35016  1.0000
  C   C159      1.0  0.17155  0.83077  0.35094  1.0000
  C   C160      1.0  0.17884  0.86193  0.34331  1.0000
  C   C161      1.0  0.20933  0.87206  0.33671  1.0000
  C   C162      1.0  0.23280  0.84988  0.33994  1.0000
  H   H64       1.0  0.16156  0.87754  0.34290  1.0000
  H   H65       1.0  0.25498  0.85691  0.33996  1.0000
  H   H66       1.0  0.19052  0.78683  0.35055  1.0000
  C   C163      1.0  0.32099  0.72883  0.34624  1.0000
  C   C164      1.0  0.31111  0.69817  0.34596  1.0000
  C   C165      1.0  0.33171  0.67342  0.34619  1.0000
  C   C166      1.0  0.36312  0.67980  0.35137  1.0000
  C   C167      1.0  0.37420  0.71001  0.35260  1.0000
  C   C168      1.0  0.35280  0.73414  0.34838  1.0000
  H   H67       1.0  0.37825  0.66209  0.34984  1.0000
  H   H68       1.0  0.36055  0.75607  0.35062  1.0000
  H   H69       1.0  0.28827  0.69370  0.34374  1.0000
  C   C169      1.0  0.68789  0.28137  0.34292  1.0000
  C   C170      1.0  0.69769  0.31207  0.34352  1.0000
  C   C171      1.0  0.67703  0.33678  0.34482  1.0000
  C   C172      1.0  0.64563  0.33032  0.34948  1.0000
  C   C173      1.0  0.63462  0.30009  0.34968  1.0000
  C   C174      1.0  0.65608  0.27602  0.34496  1.0000
  H   H70       1.0  0.63047  0.34800  0.34825  1.0000
  H   H71       1.0  0.64836  0.25408  0.34650  1.0000
  H   H72       1.0  0.72052  0.31663  0.34101  1.0000
  C   C175      1.0  0.72769  0.68815  0.34539  1.0000
  C   C176      1.0  0.69698  0.69788  0.34564  1.0000
  C   C177      1.0  0.67231  0.67717  0.34667  1.0000
  C   C178      1.0  0.67884  0.64578  0.35163  1.0000
  C   C179      1.0  0.70910  0.63484  0.35219  1.0000
  C   C180      1.0  0.73312  0.65636  0.34761  1.0000
  H   H73       1.0  0.66120  0.63057  0.35036  1.0000
  H   H74       1.0  0.75508  0.64868  0.34943  1.0000
  H   H75       1.0  0.69238  0.72070  0.34309  1.0000
  C   C181      1.0  0.28125  0.32091  0.34333  1.0000
  C   C182      1.0  0.31201  0.31144  0.33959  1.0000
  C   C183      1.0  0.33649  0.33240  0.33828  1.0000
  C   C184      1.0  0.32972  0.36373  0.34436  1.0000
  C   C185      1.0  0.29941  0.37434  0.35036  1.0000
  C   C186      1.0  0.27558  0.35257  0.34864  1.0000
  H   H76       1.0  0.34722  0.37911  0.34426  1.0000
  H   H77       1.0  0.25355  0.35995  0.35207  1.0000
  H   H78       1.0  0.31672  0.28866  0.33623  1.0000
  C   C187      1.0  0.44482  0.10326  0.34245  1.0000
  C   C188      1.0  0.41401  0.09469  0.33462  1.0000
  C   C189      1.0  0.40532  0.06379  0.33147  1.0000
  C   C190      1.0  0.42807  0.04131  0.33859  1.0000
  C   C191      1.0  0.45901  0.04933  0.34650  1.0000
  C   C192      1.0  0.46712  0.08033  0.34619  1.0000
  H   H79       1.0  0.42206  0.01879  0.33750  1.0000
  H   H80       1.0  0.48963  0.08629  0.34670  1.0000
  H   H81       1.0  0.39761  0.11124  0.33349  1.0000
  C   C193      1.0  0.56481  0.90624  0.34987  1.0000
  C   C194      1.0  0.59552  0.91546  0.34621  1.0000
  C   C195      1.0  0.60340  0.94656  0.34143  1.0000
  C   C196      1.0  0.58001  0.96849  0.34060  1.0000
  C   C197      1.0  0.54921  0.95965  0.34163  1.0000
  C   C198      1.0  0.54183  0.92853  0.34679  1.0000
  H   H82       1.0  0.58545  0.99114  0.33857  1.0000
  H   H83       1.0  0.51947  0.92201  0.34837  1.0000
  H   H84       1.0  0.61234  0.89934  0.34741  1.0000
  C   C199      1.0  0.90625  0.44488  0.33809  1.0000
  C   C200      1.0  0.91476  0.41405  0.33049  1.0000
  C   C201      1.0  0.94565  0.40532  0.32755  1.0000
  C   C202      1.0  0.96819  0.42802  0.33424  1.0000
  C   C203      1.0  0.96025  0.45900  0.34138  1.0000
  C   C204      1.0  0.92925  0.46714  0.34099  1.0000
  H   H85       1.0  0.99069  0.42192  0.33348  1.0000
  H   H86       1.0  0.92332  0.48966  0.34126  1.0000
  H   H87       1.0  0.89821  0.39765  0.32985  1.0000
  C   C205      1.0  0.10356  0.56520  0.35177  1.0000
  C   C206      1.0  0.09381  0.59579  0.35073  1.0000
  C   C207      1.0  0.06267  0.60333  0.34446  1.0000
  C   C208      1.0  0.04110  0.57968  0.34050  1.0000
  C   C209      1.0  0.05033  0.54898  0.33934  1.0000
  C   C210      1.0  0.08155  0.54200  0.34489  1.0000
  H   H88       1.0  0.01840  0.58486  0.33814  1.0000
  H   H89       1.0  0.08827  0.51970  0.34746  1.0000
  H   H90       1.0  0.10963  0.61288  0.35203  1.0000
  C   C211      1.0  0.31311  0.03849  0.33228  1.0000
  N   N31       1.0  0.36374  0.03486  0.38627  1.0000
  C   C212      1.0  0.33443  0.02544  0.39246  1.0000
  C   C213      1.0  0.32673  0.00587  0.46179  1.0000
  O   O61       1.0  0.31276  0.01694  0.52482  1.0000
  O   O62       1.0  0.34284  0.98392  0.48223  1.0000
  H   H91       1.0  0.35492  0.97423  0.44414  1.0000
  C   C214      1.0  0.69595  0.96997  0.35252  1.0000
  N   N32       1.0  0.65211  0.94461  0.40771  1.0000
  C   C215      1.0  0.68214  0.95075  0.41746  1.0000
  C   C216      1.0  0.69713  0.93875  0.49164  1.0000
  O   O63       1.0  0.69077  0.91301  0.51623  1.0000
  O   O64       1.0  0.70834  0.95511  0.55057  1.0000
  H   H92       1.0  0.71168  0.97488  0.54526  1.0000
  C   C217      1.0  0.97058  0.31307  0.33010  1.0000
  N   N33       1.0  0.97388  0.36366  0.38471  1.0000
  C   C218      1.0  0.98312  0.33430  0.39142  1.0000
  C   C219      1.0  0.00192  0.32641  0.46244  1.0000
  O   O65       1.0  0.98943  0.31443  0.52671  1.0000
  O   O66       1.0  0.02467  0.34162  0.48094  1.0000
  H   H93       1.0  0.03529  0.35222  0.44118  1.0000
  C   C220      1.0  0.03884  0.69573  0.35856  1.0000
  N   N34       1.0  0.06429  0.65180  0.41256  1.0000
  C   C221      1.0  0.05809  0.68178  0.42315  1.0000
  C   C222      1.0  0.07020  0.69667  0.49743  1.0000
  O   O67       1.0  0.09595  0.69005  0.52128  1.0000
  O   O68       1.0  0.05396  0.70767  0.55694  1.0000
  H   H94       1.0  0.03420  0.71110  0.55193  1.0000
  N   N35       1.0  0.18524  0.56110  0.41253  1.0000
  C   C223      1.0  0.15582  0.57015  0.41906  1.0000
  C   C224      1.0  0.13480  0.55751  0.35718  1.0000
  C   C225      1.0  0.14794  0.58986  0.48819  1.0000
  O   O69       1.0  0.16520  0.61079  0.50575  1.0000
  O   O70       1.0  0.13123  0.58176  0.55065  1.0000
  H   H95       1.0  0.11950  0.56539  0.55029  1.0000
  N   N36       1.0  0.83166  0.47920  0.39618  1.0000
  C   C226      1.0  0.86199  0.47389  0.40296  1.0000
  C   C227      1.0  0.87519  0.45329  0.34064  1.0000
  C   C228      1.0  0.87760  0.48701  0.47421  1.0000
  O   O71       1.0  0.87209  0.51344  0.49345  1.0000
  O   O72       1.0  0.88805  0.47165  0.53664  1.0000
  H   H96       1.0  0.89079  0.45171  0.53528  1.0000
  N   N37       1.0  0.53150  0.83134  0.40779  1.0000
  C   C229      1.0  0.53728  0.86154  0.41672  1.0000
  C   C230      1.0  0.55703  0.87509  0.35269  1.0000
  C   C231      1.0  0.52531  0.87668  0.49017  1.0000
  O   O73       1.0  0.50032  0.86909  0.51882  1.0000
  O   O74       1.0  0.54341  0.88928  0.54180  1.0000
  H   H97       1.0  0.53820  0.89804  0.59321  1.0000
  N   N38       1.0  0.47901  0.17822  0.39663  1.0000
  C   C232      1.0  0.47367  0.14794  0.40530  1.0000
  C   C233      1.0  0.45318  0.13432  0.34351  1.0000
  C   C234      1.0  0.48676  0.13279  0.47746  1.0000
  O   O75       1.0  0.51312  0.13857  0.49693  1.0000
  O   O76       1.0  0.47138  0.12237  0.53989  1.0000
  H   H98       1.0  0.45146  0.11953  0.53836  1.0000
  N   N39       1.0  0.22021  0.10177  0.41271  1.0000
  C   C235      1.0  0.20981  0.13072  0.42040  1.0000
  C   C236      1.0  0.18864  0.14113  0.35515  1.0000
  C   C237      1.0  0.22070  0.14832  0.49098  1.0000
  O   O77       1.0  0.24753  0.14624  0.51144  1.0000
  O   O78       1.0  0.20378  0.15815  0.55064  1.0000
  H   H99       1.0  0.18368  0.15863  0.54775  1.0000
  N   N40       1.0  0.78972  0.90736  0.41608  1.0000
  C   C238      1.0  0.80006  0.87836  0.42276  1.0000
  C   C239      1.0  0.82087  0.86807  0.35639  1.0000
  C   C240      1.0  0.78930  0.86058  0.49311  1.0000
  O   O79       1.0  0.76269  0.86305  0.51561  1.0000
  O   O80       1.0  0.80635  0.85045  0.55202  1.0000
  H   H100      1.0  0.82642  0.84966  0.54825  1.0000
  N   N41       1.0  0.90713  0.22025  0.40969  1.0000
  C   C241      1.0  0.87815  0.20986  0.41694  1.0000
  C   C242      1.0  0.86784  0.18860  0.35180  1.0000
  C   C243      1.0  0.86043  0.22081  0.48715  1.0000
  O   O81       1.0  0.86269  0.24756  0.50834  1.0000
  O   O82       1.0  0.85063  0.20398  0.54708  1.0000
  H   H101      1.0  0.85001  0.18388  0.54423  1.0000
  N   N42       1.0  0.10178  0.78940  0.42009  1.0000
  C   C244      1.0  0.13073  0.79986  0.42627  1.0000
  C   C245      1.0  0.14069  0.82090  0.36013  1.0000
  C   C246      1.0  0.14874  0.78906  0.49604  1.0000
  O   O83       1.0  0.14646  0.76240  0.51814  1.0000
  O   O84       1.0  0.15895  0.80605  0.55499  1.0000
  H   H102      1.0  0.15964  0.82613  0.55153  1.0000
  C   C247      1.0  0.29793  0.58303  0.34125  1.0000
  N   N43       1.0  0.32914  0.62225  0.40323  1.0000
  C   C248      1.0  0.31890  0.59298  0.40735  1.0000
  C   C249      1.0  0.32713  0.57525  0.48008  1.0000
  O   O85       1.0  0.31889  0.58399  0.55421  1.0000
  O   O86       1.0  0.35172  0.56172  0.48038  1.0000
  H   H103      1.0  0.36151  0.55562  0.43147  1.0000
  C   C250      1.0  0.71016  0.42748  0.33817  1.0000
  N   N44       1.0  0.68029  0.38778  0.40337  1.0000
  C   C251      1.0  0.69043  0.41712  0.40699  1.0000
  C   C252      1.0  0.68334  0.43462  0.48128  1.0000
  O   O87       1.0  0.69072  0.42466  0.55485  1.0000
  O   O88       1.0  0.65995  0.45016  0.48228  1.0000
  H   H104      1.0  0.65063  0.45724  0.43375  1.0000
  C   C253      1.0  0.58164  0.71039  0.34015  1.0000
  N   N45       1.0  0.62122  0.68019  0.40469  1.0000
  C   C254      1.0  0.59190  0.69037  0.40839  1.0000
  C   C255      1.0  0.57430  0.68303  0.48237  1.0000
  O   O89       1.0  0.58398  0.69108  0.55563  1.0000
  O   O90       1.0  0.55958  0.65914  0.48297  1.0000
  H   H105      1.0  0.55270  0.64973  0.43432  1.0000
  C   C256      1.0  0.42711  0.29913  0.33133  1.0000
  N   N46       1.0  0.38784  0.33005  0.39437  1.0000
  C   C257      1.0  0.41716  0.31986  0.39806  1.0000
  C   C258      1.0  0.43497  0.32775  0.47096  1.0000
  O   O91       1.0  0.42632  0.31826  0.54387  1.0000
  O   O92       1.0  0.44758  0.35276  0.47393  1.0000
  H   H106      1.0  0.45349  0.36321  0.42603  1.0000
  C   C259      1.0  0.22695  0.96743  0.33254  1.0000
  N   N47       1.0  0.20073  0.92348  0.38605  1.0000
  C   C260      1.0  0.20482  0.95420  0.38999  1.0000
  C   C261      1.0  0.18917  0.97027  0.45536  1.0000
  O   O93       1.0  0.20409  0.97982  0.51865  1.0000
  O   O94       1.0  0.16232  0.96479  0.47368  1.0000
  H   H107      1.0  0.14906  0.95694  0.43532  1.0000
  C   C262      1.0  0.78122  0.04187  0.33318  1.0000
  N   N48       1.0  0.80775  0.08614  0.38332  1.0000
  C   C263      1.0  0.80370  0.05543  0.38874  1.0000
  C   C264      1.0  0.81966  0.03973  0.45419  1.0000
  O   O95       1.0  0.80515  0.03123  0.51962  1.0000
  O   O96       1.0  0.84676  0.04489  0.46975  1.0000
  H   H108      1.0  0.85979  0.05205  0.42956  1.0000
  C   C265      1.0  0.04188  0.22720  0.33166  1.0000
  N   N49       1.0  0.08596  0.20122  0.38560  1.0000
  C   C266      1.0  0.05520  0.20519  0.38932  1.0000
  C   C267      1.0  0.03914  0.18960  0.45492  1.0000
  O   O97       1.0  0.03008  0.20469  0.51848  1.0000
  O   O98       1.0  0.04449  0.16266  0.47219  1.0000
  H   H109      1.0  0.05193  0.14942  0.43304  1.0000
  C   C268      1.0  0.96710  0.78107  0.33834  1.0000
  N   N50       1.0  0.92283  0.80767  0.38794  1.0000
  C   C269      1.0  0.95351  0.80354  0.39386  1.0000
  C   C270      1.0  0.96920  0.81954  0.45931  1.0000
  O   O99       1.0  0.97715  0.80473  0.52476  1.0000
  O   O100      1.0  0.96377  0.84651  0.47563  1.0000
  H   H110      1.0  0.95682  0.85966  0.43544  1.0000
  N   N51       1.0  0.26878  0.45038  0.41458  1.0000
  C   C271      1.0  0.27339  0.41985  0.41999  1.0000
  C   C272      1.0  0.29340  0.40627  0.35674  1.0000
  C   C273      1.0  0.25923  0.40403  0.48911  1.0000
  O   O101      1.0  0.23299  0.41061  0.50774  1.0000
  O   O102      1.0  0.27400  0.39242  0.55098  1.0000
  H   H111      1.0  0.29381  0.38885  0.54983  1.0000
  N   N52       1.0  0.71079  0.55133  0.40236  1.0000
  C   C274      1.0  0.70249  0.58106  0.41238  1.0000
  C   C275      1.0  0.71514  0.60285  0.35231  1.0000
  C   C276      1.0  0.68423  0.58870  0.48458  1.0000
  O   O103      1.0  0.66442  0.57086  0.50846  1.0000
  O   O104      1.0  0.69463  0.60688  0.54009  1.0000
  H   H112      1.0  0.68548  0.61188  0.59108  1.0000
  N   N53       1.0  0.45761  0.71114  0.40448  1.0000
  C   C277      1.0  0.42782  0.70294  0.41359  1.0000
  C   C278      1.0  0.40623  0.71591  0.35347  1.0000
  C   C279      1.0  0.41994  0.68448  0.48510  1.0000
  O   O105      1.0  0.43761  0.66446  0.50866  1.0000
  O   O106      1.0  0.40173  0.69481  0.54065  1.0000
  H   H113      1.0  0.39658  0.68552  0.59128  1.0000
  N   N54       1.0  0.55102  0.29870  0.39882  1.0000
  C   C280      1.0  0.58077  0.30688  0.40921  1.0000
  C   C281      1.0  0.60261  0.29414  0.34944  1.0000
  C   C282      1.0  0.58836  0.32512  0.48148  1.0000
  O   O107      1.0  0.57057  0.34504  0.50502  1.0000
  O   O108      1.0  0.60636  0.31463  0.53734  1.0000
  H   H114      1.0  0.61131  0.32376  0.58842  1.0000
  N   N55       1.0  0.25995  0.27445  0.39929  1.0000
  C   C283      1.0  0.23991  0.25096  0.40671  1.0000
  C   C284      1.0  0.21355  0.25108  0.35116  1.0000
  C   C285      1.0  0.24565  0.22937  0.47267  1.0000
  O   O109      1.0  0.27170  0.22024  0.48195  1.0000
  O   O110      1.0  0.22918  0.22678  0.53959  1.0000
  H   H115      1.0  0.21062  0.23439  0.54473  1.0000
  N   N56       1.0  0.74929  0.73460  0.40035  1.0000
  C   C286      1.0  0.76926  0.75817  0.40709  1.0000
  C   C287      1.0  0.79541  0.75813  0.35067  1.0000
  C   C288      1.0  0.76369  0.77977  0.47305  1.0000
  O   O111      1.0  0.73764  0.78870  0.48379  1.0000
  O   O112      1.0  0.78026  0.78237  0.53979  1.0000
  H   H116      1.0  0.79888  0.77488  0.54449  1.0000
  N   N57       1.0  0.73430  0.25964  0.39774  1.0000
  C   C289      1.0  0.75784  0.23963  0.40430  1.0000
  C   C290      1.0  0.75779  0.21356  0.34760  1.0000
  C   C291      1.0  0.77946  0.24512  0.47030  1.0000
  O   O113      1.0  0.78836  0.27116  0.48141  1.0000
  O   O114      1.0  0.78208  0.22845  0.53682  1.0000
  H   H117      1.0  0.77461  0.20981  0.54126  1.0000
  N   N58       1.0  0.27472  0.75034  0.40238  1.0000
  C   C292      1.0  0.25105  0.77017  0.40932  1.0000
  C   C293      1.0  0.25078  0.79617  0.35236  1.0000
  C   C294      1.0  0.22963  0.76456  0.47577  1.0000
  O   O115      1.0  0.22088  0.73847  0.48697  1.0000
  O   O116      1.0  0.22712  0.78119  0.54239  1.0000
  H   H118      1.0  0.23450  0.79986  0.54671  1.0000
  N   N59       1.0  0.52692  0.00367  0.40414  1.0000
  C   C295      1.0  0.50611  0.02622  0.41280  1.0000
  C   C296      1.0  0.48169  0.02667  0.35044  1.0000
  C   C297      1.0  0.50908  0.04627  0.48447  1.0000
  O   O117      1.0  0.53449  0.05531  0.50412  1.0000
  O   O118      1.0  0.49008  0.04756  0.54565  1.0000
  H   H119      1.0  0.47163  0.03953  0.54357  1.0000
  N   N60       1.0  0.00596  0.52681  0.39965  1.0000
  C   C298      1.0  0.98322  0.50619  0.40755  1.0000
  C   C299      1.0  0.98301  0.48161  0.34578  1.0000
  C   C300      1.0  0.96273  0.50959  0.47791  1.0000
  O   O119      1.0  0.95389  0.53514  0.49684  1.0000
  O   O120      1.0  0.96099  0.49095  0.53995  1.0000
  H   H120      1.0  0.96878  0.47240  0.53894  1.0000
