data_image0
_chemical_formula_structural       CNC2O2HCNC2O2HCNC2O2HCNC2O2HCNC2O2HCNC2O2HNC3O2HNC3O2HNC3O2HNC3O2HNC3O2HNC3O2HNC3O2HNC3O2HNC3O2HNC3O2HNC3O2HNC3O2HNC18H12NC18H12NC18H12NC18H12NC18H12NC18H12NC18H12NC18H12NC18H12NC18H12NC18H12NC18H12NC3O2HNC3O2HNC3O2HNC3O2HNC3O2HNC3O2HCNC2O2HCNC2O2HCNC2O2HCNC2O2HCNC2O2HCNC2O2HCNC2O2HCNC2O2HCNC2O2HCNC2O2HCNC2O2HCNC2O2H
_chemical_formula_sum              "C324 N48 O72 H180"
_cell_length_a       64.0393
_cell_length_b       64.0393
_cell_length_c       14.7471
_cell_angle_alpha    90
_cell_angle_beta     90
_cell_angle_gamma    120

_space_group_name_H-M_alt    "P 1"
_space_group_IT_number       1

loop_
  _space_group_symop_operation_xyz
  'x, y, z'

loop_
  _atom_site_type_symbol
  _atom_site_label
  _atom_site_symmetry_multiplicity
  _atom_site_fract_x
  _atom_site_fract_y
  _atom_site_fract_z
  _atom_site_occupancy
  C   C1        1.0  0.19187  0.36586  0.33977  1.0000
  N   N1        1.0  0.21551  0.40577  0.27765  1.0000
  C   C2        1.0  0.20386  0.38139  0.26486  1.0000
  C   C3        1.0  0.20613  0.37378  0.17967  1.0000
  O   O1        1.0  0.22089  0.36712  0.17159  1.0000
  O   O2        1.0  0.20235  0.38204  0.10980  1.0000
  H   H1        1.0  0.19268  0.38821  0.10674  1.0000
  C   C4        1.0  0.64353  0.81831  0.34045  1.0000
  N   N2        1.0  0.60357  0.80162  0.27799  1.0000
  C   C5        1.0  0.62796  0.81445  0.26531  1.0000
  C   C6        1.0  0.63556  0.82426  0.17999  1.0000
  O   O3        1.0  0.64209  0.84563  0.17150  1.0000
  O   O4        1.0  0.62729  0.81212  0.11033  1.0000
  H   H2        1.0  0.62119  0.79629  0.10751  1.0000
  C   C7        1.0  0.19113  0.81692  0.33981  1.0000
  N   N3        1.0  0.20736  0.79324  0.27765  1.0000
  C   C8        1.0  0.19464  0.80491  0.26490  1.0000
  C   C9        1.0  0.18466  0.80256  0.17977  1.0000
  O   O5        1.0  0.16329  0.78758  0.17238  1.0000
  O   O6        1.0  0.19682  0.80653  0.11013  1.0000
  H   H3        1.0  0.21261  0.81644  0.10716  1.0000
  C   C10       1.0  0.82543  0.63440  0.33975  1.0000
  N   N4        1.0  0.80177  0.59449  0.27762  1.0000
  C   C11       1.0  0.81342  0.61887  0.26484  1.0000
  C   C12       1.0  0.81117  0.62651  0.17963  1.0000
  O   O7        1.0  0.79596  0.63261  0.17255  1.0000
  O   O8        1.0  0.81474  0.61810  0.10984  1.0000
  H   H4        1.0  0.82462  0.61218  0.10640  1.0000
  C   C13       1.0  0.37433  0.18260  0.33977  1.0000
  N   N5        1.0  0.41424  0.19884  0.27764  1.0000
  C   C14       1.0  0.38986  0.18613  0.26487  1.0000
  C   C15       1.0  0.38224  0.17622  0.17971  1.0000
  O   O9        1.0  0.37558  0.15480  0.17171  1.0000
  O   O10       1.0  0.39053  0.18825  0.10982  1.0000
  H   H5        1.0  0.39671  0.20408  0.10668  1.0000
  C   C16       1.0  0.82592  0.18265  0.33992  1.0000
  N   N6        1.0  0.80981  0.20639  0.27729  1.0000
  C   C17       1.0  0.82238  0.19456  0.26476  1.0000
  C   C18       1.0  0.83233  0.19668  0.17977  1.0000
  O   O11       1.0  0.85377  0.21138  0.17198  1.0000
  O   O12       1.0  0.82039  0.19314  0.10977  1.0000
  H   H6        1.0  0.80455  0.18357  0.10638  1.0000
  N   N7        1.0  0.21071  0.18844  0.28024  1.0000
  C   C19       1.0  0.19843  0.20052  0.26654  1.0000
  C   C20       1.0  0.19065  0.20826  0.34354  1.0000
  C   C21       1.0  0.19657  0.20649  0.17779  1.0000
  O   O13       1.0  0.19047  0.19088  0.11974  1.0000
  O   O14       1.0  0.20899  0.22735  0.14936  1.0000
  H   H7        1.0  0.21623  0.24039  0.18397  1.0000
  N   N8        1.0  0.82036  0.01355  0.28531  1.0000
  C   C22       1.0  0.80749  0.98922  0.27158  1.0000
  C   C23       1.0  0.80614  0.97383  0.34342  1.0000
  C   C24       1.0  0.79566  0.98106  0.18955  1.0000
  O   O15       1.0  0.80729  0.98952  0.12008  1.0000
  O   O16       1.0  0.77367  0.97256  0.18213  1.0000
  H   H8        1.0  0.76335  0.96734  0.22795  1.0000
  N   N9        1.0  0.99495  0.79808  0.28028  1.0000
  C   C25       1.0  0.01931  0.81038  0.26660  1.0000
  C   C26       1.0  0.03483  0.81814  0.34358  1.0000
  C   C27       1.0  0.02713  0.81221  0.17778  1.0000
  O   O17       1.0  0.01778  0.81864  0.12029  1.0000
  O   O18       1.0  0.03534  0.79959  0.14953  1.0000
  H   H9        1.0  0.04103  0.79225  0.18418  1.0000
  N   N10       1.0  0.80658  0.81162  0.28025  1.0000
  C   C28       1.0  0.81888  0.79957  0.26651  1.0000
  C   C29       1.0  0.82667  0.79184  0.34350  1.0000
  C   C30       1.0  0.82075  0.79363  0.17774  1.0000
  O   O19       1.0  0.82685  0.80927  0.11981  1.0000
  O   O20       1.0  0.80827  0.77280  0.14918  1.0000
  H   H10       1.0  0.80103  0.75975  0.18369  1.0000
  N   N11       1.0  0.19699  0.98642  0.28023  1.0000
  C   C31       1.0  0.20907  0.01078  0.26654  1.0000
  C   C32       1.0  0.21680  0.02630  0.34353  1.0000
  C   C33       1.0  0.21503  0.01861  0.17778  1.0000
  O   O21       1.0  0.19942  0.00910  0.11976  1.0000
  O   O22       1.0  0.23588  0.02703  0.14932  1.0000
  H   H11       1.0  0.24892  0.03283  0.18390  1.0000
  N   N12       1.0  0.02268  0.20247  0.28037  1.0000
  C   C34       1.0  0.99833  0.19030  0.26661  1.0000
  C   C35       1.0  0.98282  0.18255  0.34360  1.0000
  C   C36       1.0  0.99055  0.18844  0.17779  1.0000
  O   O23       1.0  0.00002  0.18229  0.11981  1.0000
  O   O24       1.0  0.98201  0.20077  0.14925  1.0000
  H   H12       1.0  0.97622  0.20802  0.18381  1.0000
  N   N13       1.0  0.24733  0.60615  0.28121  1.0000
  C   C37       1.0  0.24718  0.62689  0.26194  1.0000
  C   C38       1.0  0.24753  0.64147  0.33541  1.0000
  C   C39       1.0  0.24490  0.63121  0.17146  1.0000
  O   O25       1.0  0.25757  0.62850  0.11620  1.0000
  O   O26       1.0  0.22603  0.62933  0.14129  1.0000
  H   H13       1.0  0.21447  0.62923  0.17467  1.0000
  N   N14       1.0  0.40268  0.63283  0.28108  1.0000
  C   C40       1.0  0.38195  0.61193  0.26190  1.0000
  C   C41       1.0  0.36734  0.59776  0.33542  1.0000
  C   C42       1.0  0.37761  0.60527  0.17153  1.0000
  O   O27       1.0  0.38061  0.62062  0.11565  1.0000
  O   O28       1.0  0.37925  0.58812  0.14144  1.0000
  H   H14       1.0  0.37921  0.57661  0.17491  1.0000
  N   N15       1.0  0.37608  0.76135  0.28139  1.0000
  C   C43       1.0  0.39700  0.76156  0.26217  1.0000
  C   C44       1.0  0.41119  0.76113  0.33567  1.0000
  C   C45       1.0  0.40366  0.76393  0.17178  1.0000
  O   O29       1.0  0.38830  0.75163  0.11587  1.0000
  O   O30       1.0  0.42074  0.78277  0.14179  1.0000
  H   H15       1.0  0.43225  0.79423  0.17529  1.0000
  N   N16       1.0  0.76993  0.39395  0.28125  1.0000
  C   C46       1.0  0.77011  0.37323  0.26199  1.0000
  C   C47       1.0  0.76969  0.35862  0.33546  1.0000
  C   C48       1.0  0.77241  0.36892  0.17157  1.0000
  O   O31       1.0  0.76008  0.37197  0.11578  1.0000
  O   O32       1.0  0.79122  0.37064  0.14138  1.0000
  H   H16       1.0  0.80269  0.37058  0.17476  1.0000
  N   N17       1.0  0.61467  0.36743  0.28117  1.0000
  C   C49       1.0  0.63541  0.38831  0.26193  1.0000
  C   C50       1.0  0.64997  0.40254  0.33541  1.0000
  C   C51       1.0  0.63974  0.39490  0.17144  1.0000
  O   O33       1.0  0.63705  0.37953  0.11622  1.0000
  O   O34       1.0  0.63787  0.41190  0.14122  1.0000
  H   H17       1.0  0.63776  0.42336  0.17455  1.0000
  N   N18       1.0  0.64131  0.23872  0.28125  1.0000
  C   C52       1.0  0.62042  0.23855  0.26204  1.0000
  C   C53       1.0  0.60623  0.23897  0.33554  1.0000
  C   C54       1.0  0.61378  0.23624  0.17165  1.0000
  O   O35       1.0  0.62914  0.24862  0.11584  1.0000
  O   O36       1.0  0.59666  0.21746  0.14146  1.0000
  H   H18       1.0  0.58514  0.20598  0.17487  1.0000
  N   N19       1.0  0.13903  0.26120  0.35162  1.0000
  C   C55       1.0  0.11310  0.24823  0.35458  1.0000
  C   C56       1.0  0.15203  0.28710  0.34832  1.0000
  C   C57       1.0  0.15195  0.24820  0.34902  1.0000
  C   C58       1.0  0.14897  0.23254  0.27647  1.0000
  C   C59       1.0  0.16123  0.21930  0.27472  1.0000
  C   C60       1.0  0.17765  0.22147  0.34392  1.0000
  C   C61       1.0  0.18016  0.23700  0.41711  1.0000
  C   C62       1.0  0.16758  0.24989  0.41989  1.0000
  C   C63       1.0  0.09902  0.24907  0.28239  1.0000
  C   C64       1.0  0.07357  0.23621  0.28580  1.0000
  C   C65       1.0  0.06067  0.22149  0.36092  1.0000
  C   C66       1.0  0.07505  0.22010  0.43151  1.0000
  C   C67       1.0  0.10054  0.23335  0.42909  1.0000
  C   C68       1.0  0.15522  0.29964  0.26612  1.0000
  C   C69       1.0  0.16761  0.32510  0.26307  1.0000
  C   C70       1.0  0.17851  0.33958  0.34104  1.0000
  C   C71       1.0  0.17499  0.32664  0.42339  1.0000
  C   C72       1.0  0.16194  0.30116  0.42719  1.0000
  H   H19       1.0  0.06446  0.23792  0.23189  1.0000
  H   H20       1.0  0.10723  0.25911  0.22603  1.0000
  H   H21       1.0  0.11005  0.23174  0.48177  1.0000
  H   H22       1.0  0.06716  0.20880  0.48529  1.0000
  H   H23       1.0  0.13735  0.23033  0.22488  1.0000
  H   H24       1.0  0.15734  0.20742  0.22258  1.0000
  H   H25       1.0  0.14828  0.29020  0.20733  1.0000
  H   H26       1.0  0.16793  0.33281  0.20221  1.0000
  H   H27       1.0  0.18209  0.33574  0.48274  1.0000
  H   H28       1.0  0.15973  0.29283  0.48847  1.0000
  H   H29       1.0  0.16995  0.26064  0.47466  1.0000
  H   H30       1.0  0.19150  0.23930  0.46989  1.0000
  N   N20       1.0  0.74840  0.86982  0.35098  1.0000
  C   C73       1.0  0.76093  0.85643  0.35421  1.0000
  C   C74       1.0  0.72245  0.85749  0.34805  1.0000
  C   C75       1.0  0.76229  0.89570  0.34810  1.0000
  C   C76       1.0  0.77638  0.90789  0.27140  1.0000
  C   C77       1.0  0.79083  0.93332  0.26948  1.0000
  C   C78       1.0  0.79195  0.94780  0.34425  1.0000
  C   C79       1.0  0.77819  0.93539  0.42171  1.0000
  C   C80       1.0  0.76363  0.90997  0.42345  1.0000
  C   C81       1.0  0.76009  0.84153  0.28193  1.0000
  C   C82       1.0  0.77283  0.82881  0.28547  1.0000
  C   C83       1.0  0.78743  0.83048  0.36079  1.0000
  C   C84       1.0  0.78878  0.84618  0.43156  1.0000
  C   C85       1.0  0.77563  0.85852  0.42905  1.0000
  C   C86       1.0  0.70975  0.84754  0.26653  1.0000
  C   C87       1.0  0.68427  0.83452  0.26383  1.0000
  C   C88       1.0  0.66985  0.83142  0.34153  1.0000
  C   C89       1.0  0.68292  0.84150  0.42317  1.0000
  C   C90       1.0  0.70844  0.85403  0.42656  1.0000
  H   H31       1.0  0.77119  0.81808  0.23136  1.0000
  H   H32       1.0  0.75023  0.83990  0.22524  1.0000
  H   H33       1.0  0.77728  0.86962  0.48181  1.0000
  H   H34       1.0  0.80002  0.84952  0.48550  1.0000
  H   H35       1.0  0.77629  0.89816  0.21624  1.0000
  H   H36       1.0  0.80104  0.94117  0.21298  1.0000
  H   H37       1.0  0.71909  0.84950  0.20792  1.0000
  H   H38       1.0  0.67648  0.82669  0.20356  1.0000
  H   H39       1.0  0.67385  0.83988  0.48230  1.0000
  H   H40       1.0  0.71684  0.86061  0.48742  1.0000
  H   H41       1.0  0.75414  0.90184  0.48105  1.0000
  H   H42       1.0  0.77831  0.94488  0.47777  1.0000
  N   N21       1.0  0.13945  0.86995  0.35167  1.0000
  C   C91       1.0  0.15241  0.89590  0.35454  1.0000
  C   C92       1.0  0.15233  0.85692  0.34838  1.0000
  C   C93       1.0  0.11352  0.85700  0.34913  1.0000
  C   C94       1.0  0.10080  0.85991  0.27651  1.0000
  C   C95       1.0  0.07531  0.84759  0.27472  1.0000
  C   C96       1.0  0.06106  0.83117  0.34393  1.0000
  C   C97       1.0  0.07411  0.82874  0.41721  1.0000
  C   C98       1.0  0.09958  0.84137  0.42002  1.0000
  C   C99       1.0  0.16731  0.90999  0.28229  1.0000
  C   C100      1.0  0.17988  0.93545  0.28563  1.0000
  C   C101      1.0  0.17810  0.94837  0.36076  1.0000
  C   C102      1.0  0.16237  0.93398  0.43145  1.0000
  C   C103      1.0  0.15014  0.90848  0.42907  1.0000
  C   C104      1.0  0.16166  0.85369  0.26618  1.0000
  C   C105      1.0  0.17467  0.84122  0.26310  1.0000
  C   C106      1.0  0.17823  0.83031  0.34107  1.0000
  C   C107      1.0  0.16883  0.83386  0.42341  1.0000
  C   C108      1.0  0.15644  0.84696  0.42721  1.0000
  H   H43       1.0  0.19065  0.94456  0.23162  1.0000
  H   H44       1.0  0.16911  0.90177  0.22590  1.0000
  H   H45       1.0  0.13906  0.89898  0.48184  1.0000
  H   H46       1.0  0.15899  0.94186  0.48531  1.0000
  H   H47       1.0  0.11019  0.87149  0.22481  1.0000
  H   H48       1.0  0.06730  0.85141  0.22244  1.0000
  H   H49       1.0  0.15920  0.86065  0.20740  1.0000
  H   H50       1.0  0.18204  0.84087  0.20224  1.0000
  H   H51       1.0  0.17080  0.82674  0.48276  1.0000
  H   H52       1.0  0.15032  0.84918  0.48850  1.0000
  H   H53       1.0  0.10797  0.83904  0.47484  1.0000
  H   H54       1.0  0.06508  0.81740  0.47003  1.0000
  N   N22       1.0  0.87850  0.73909  0.35166  1.0000
  C   C109      1.0  0.90444  0.75209  0.35456  1.0000
  C   C110      1.0  0.86547  0.71318  0.34836  1.0000
  C   C111      1.0  0.86555  0.75206  0.34908  1.0000
  C   C112      1.0  0.86846  0.76768  0.27647  1.0000
  C   C113      1.0  0.85615  0.78086  0.27465  1.0000
  C   C114      1.0  0.83971  0.77866  0.34386  1.0000
  C   C115      1.0  0.83726  0.76318  0.41712  1.0000
  C   C116      1.0  0.84991  0.75035  0.41995  1.0000
  C   C117      1.0  0.91854  0.75129  0.28232  1.0000
  C   C118      1.0  0.94400  0.76420  0.28565  1.0000
  C   C119      1.0  0.95691  0.77891  0.36079  1.0000
  C   C120      1.0  0.94251  0.78024  0.43143  1.0000
  C   C121      1.0  0.91701  0.76695  0.42907  1.0000
  C   C122      1.0  0.86223  0.70063  0.26615  1.0000
  C   C123      1.0  0.84975  0.67516  0.26305  1.0000
  C   C124      1.0  0.83882  0.66068  0.34100  1.0000
  C   C125      1.0  0.84237  0.67364  0.42336  1.0000
  C   C126      1.0  0.85549  0.69912  0.42718  1.0000
  H   H55       1.0  0.95312  0.76253  0.23168  1.0000
  H   H56       1.0  0.91032  0.74125  0.22595  1.0000
  H   H57       1.0  0.90751  0.76855  0.48179  1.0000
  H   H58       1.0  0.95039  0.79152  0.48526  1.0000
  H   H59       1.0  0.88006  0.76988  0.22478  1.0000
  H   H60       1.0  0.85997  0.79269  0.22239  1.0000
  H   H61       1.0  0.86920  0.71007  0.20738  1.0000
  H   H62       1.0  0.84940  0.66745  0.20219  1.0000
  H   H63       1.0  0.83524  0.66454  0.48270  1.0000
  H   H64       1.0  0.85771  0.70745  0.48847  1.0000
  H   H65       1.0  0.84757  0.73963  0.47477  1.0000
  H   H66       1.0  0.82592  0.76086  0.46991  1.0000
  N   N23       1.0  0.26963  0.13092  0.35163  1.0000
  C   C127      1.0  0.25665  0.14388  0.35454  1.0000
  C   C128      1.0  0.29554  0.14380  0.34834  1.0000
  C   C129      1.0  0.25665  0.10499  0.34908  1.0000
  C   C130      1.0  0.24101  0.09228  0.27651  1.0000
  C   C131      1.0  0.22781  0.06678  0.27472  1.0000
  C   C132      1.0  0.23001  0.05253  0.34389  1.0000
  C   C133      1.0  0.24550  0.06557  0.41714  1.0000
  C   C134      1.0  0.25835  0.09105  0.41995  1.0000
  C   C135      1.0  0.25745  0.15878  0.28231  1.0000
  C   C136      1.0  0.24456  0.17135  0.28565  1.0000
  C   C137      1.0  0.22986  0.16955  0.36079  1.0000
  C   C138      1.0  0.22852  0.15382  0.43145  1.0000
  C   C139      1.0  0.24180  0.14159  0.42907  1.0000
  C   C140      1.0  0.30810  0.15315  0.26615  1.0000
  C   C141      1.0  0.33357  0.16617  0.26309  1.0000
  C   C142      1.0  0.34805  0.16972  0.34103  1.0000
  C   C143      1.0  0.33510  0.16031  0.42337  1.0000
  C   C144      1.0  0.30961  0.14791  0.42717  1.0000
  H   H67       1.0  0.24624  0.18213  0.23167  1.0000
  H   H68       1.0  0.26749  0.16059  0.22591  1.0000
  H   H69       1.0  0.24020  0.13050  0.48179  1.0000
  H   H70       1.0  0.21724  0.15042  0.48528  1.0000
  H   H71       1.0  0.23880  0.10167  0.22484  1.0000
  H   H72       1.0  0.21597  0.05878  0.22247  1.0000
  H   H73       1.0  0.29867  0.15068  0.20737  1.0000
  H   H74       1.0  0.34129  0.17353  0.20221  1.0000
  H   H75       1.0  0.34419  0.16227  0.48271  1.0000
  H   H76       1.0  0.30128  0.14179  0.48845  1.0000
  H   H77       1.0  0.26908  0.09943  0.47474  1.0000
  H   H78       1.0  0.24781  0.05655  0.46993  1.0000
  N   N24       1.0  0.87831  0.13028  0.35258  1.0000
  C   C145      1.0  0.86643  0.10440  0.35547  1.0000
  C   C146      1.0  0.86476  0.14264  0.34898  1.0000
  C   C147      1.0  0.90422  0.14366  0.34954  1.0000
  C   C148      1.0  0.91694  0.14091  0.27654  1.0000
  C   C149      1.0  0.94241  0.15322  0.27467  1.0000
  C   C150      1.0  0.95663  0.16961  0.34397  1.0000
  C   C151      1.0  0.94360  0.17202  0.41736  1.0000
  C   C152      1.0  0.91813  0.15930  0.42041  1.0000
  C   C153      1.0  0.85551  0.09004  0.27814  1.0000
  C   C154      1.0  0.84522  0.06470  0.28070  1.0000
  C   C155      1.0  0.84504  0.05198  0.36037  1.0000
  C   C156      1.0  0.85582  0.06689  0.43775  1.0000
  C   C157      1.0  0.86647  0.09228  0.43525  1.0000
  C   C158      1.0  0.85443  0.14484  0.26750  1.0000
  C   C159      1.0  0.84150  0.15741  0.26421  1.0000
  C   C160      1.0  0.83873  0.16917  0.34129  1.0000
  C   C161      1.0  0.84883  0.16636  0.42313  1.0000
  C   C162      1.0  0.86135  0.15338  0.42705  1.0000
  H   H79       1.0  0.83785  0.05556  0.22169  1.0000
  H   H80       1.0  0.85549  0.09808  0.21829  1.0000
  H   H81       1.0  0.87420  0.10204  0.49286  1.0000
  H   H82       1.0  0.85580  0.05964  0.49906  1.0000
  H   H83       1.0  0.90758  0.12931  0.22485  1.0000
  H   H84       1.0  0.95041  0.14939  0.22239  1.0000
  H   H85       1.0  0.85627  0.13718  0.20942  1.0000
  H   H86       1.0  0.83363  0.15730  0.20394  1.0000
  H   H87       1.0  0.84743  0.17408  0.48187  1.0000
  H   H88       1.0  0.86810  0.15187  0.48798  1.0000
  H   H89       1.0  0.90976  0.16148  0.47559  1.0000
  H   H90       1.0  0.95263  0.18331  0.47028  1.0000
  N   N25       1.0  0.26970  0.52171  0.35062  1.0000
  C   C163      1.0  0.29519  0.53587  0.33624  1.0000
  C   C164      1.0  0.25681  0.49588  0.35230  1.0000
  C   C165      1.0  0.25821  0.53571  0.36493  1.0000
  C   C166      1.0  0.26468  0.55111  0.44105  1.0000
  C   C167      1.0  0.26069  0.57083  0.44249  1.0000
  C   C168      1.0  0.24910  0.57557  0.36985  1.0000
  C   C169      1.0  0.24135  0.55903  0.29627  1.0000
  C   C170      1.0  0.24595  0.53967  0.29341  1.0000
  C   C171      1.0  0.31147  0.54006  0.40783  1.0000
  C   C172      1.0  0.33538  0.55948  0.40462  1.0000
  C   C173      1.0  0.34407  0.57595  0.33082  1.0000
  C   C174      1.0  0.32767  0.57102  0.25825  1.0000
  C   C175      1.0  0.30403  0.55114  0.25976  1.0000
  C   C176      1.0  0.25783  0.48296  0.42818  1.0000
  C   C177      1.0  0.24509  0.45748  0.42981  1.0000
  C   C178      1.0  0.23034  0.44361  0.35634  1.0000
  C   C179      1.0  0.22977  0.45678  0.27984  1.0000
  C   C180      1.0  0.24262  0.48227  0.27792  1.0000
  H   H91       1.0  0.34606  0.56226  0.46016  1.0000
  H   H92       1.0  0.30545  0.53026  0.46635  1.0000
  H   H93       1.0  0.29237  0.54959  0.20926  1.0000
  H   H94       1.0  0.33189  0.58295  0.20613  1.0000
  H   H95       1.0  0.27483  0.54965  0.49159  1.0000
  H   H96       1.0  0.26840  0.58286  0.49436  1.0000
  H   H97       1.0  0.26793  0.49211  0.48337  1.0000
  H   H98       1.0  0.24717  0.44914  0.48535  1.0000
  H   H99       1.0  0.21957  0.44784  0.22443  1.0000
  H   H100      1.0  0.24165  0.49092  0.22118  1.0000
  H   H101      1.0  0.24223  0.52982  0.23505  1.0000
  H   H102      1.0  0.23338  0.56170  0.24072  1.0000
  N   N26       1.0  0.48742  0.73969  0.35036  1.0000
  C   C181      1.0  0.47324  0.75104  0.33635  1.0000
  C   C182      1.0  0.51328  0.75264  0.35226  1.0000
  C   C183      1.0  0.47335  0.71419  0.36471  1.0000
  C   C184      1.0  0.45796  0.70527  0.44091  1.0000
  C   C185      1.0  0.43813  0.68159  0.44221  1.0000
  C   C186      1.0  0.43331  0.66525  0.36957  1.0000
  C   C187      1.0  0.44984  0.67400  0.29596  1.0000
  C   C188      1.0  0.46923  0.69795  0.29305  1.0000
  C   C189      1.0  0.46895  0.76302  0.40805  1.0000
  C   C190      1.0  0.44947  0.76744  0.40496  1.0000
  C   C191      1.0  0.43304  0.75972  0.33103  1.0000
  C   C192      1.0  0.43806  0.74838  0.25827  1.0000
  C   C193      1.0  0.45791  0.74457  0.26000  1.0000
  C   C194      1.0  0.52620  0.76663  0.42810  1.0000
  C   C195      1.0  0.55170  0.77939  0.42987  1.0000
  C   C196      1.0  0.56564  0.77857  0.35655  1.0000
  C   C197      1.0  0.55247  0.76477  0.28010  1.0000
  C   C198      1.0  0.52696  0.75208  0.27808  1.0000
  H   H103      1.0  0.44665  0.77527  0.46060  1.0000
  H   H104      1.0  0.47873  0.76678  0.46660  1.0000
  H   H105      1.0  0.45957  0.73461  0.20915  1.0000
  H   H106      1.0  0.42614  0.74066  0.20611  1.0000
  H   H107      1.0  0.45943  0.71688  0.49146  1.0000
  H   H108      1.0  0.42613  0.67732  0.49412  1.0000
  H   H109      1.0  0.51703  0.76759  0.48319  1.0000
  H   H110      1.0  0.55999  0.78983  0.48541  1.0000
  H   H111      1.0  0.56144  0.76353  0.22475  1.0000
  H   H112      1.0  0.51834  0.74243  0.22134  1.0000
  H   H113      1.0  0.47913  0.70405  0.23476  1.0000
  H   H114      1.0  0.44712  0.66338  0.24034  1.0000
  N   N27       1.0  0.26923  0.73914  0.35031  1.0000
  C   C199      1.0  0.25784  0.71364  0.33621  1.0000
  C   C200      1.0  0.25630  0.75205  0.35216  1.0000
  C   C201      1.0  0.29471  0.75057  0.36489  1.0000
  C   C202      1.0  0.30361  0.74410  0.44110  1.0000
  C   C203      1.0  0.32730  0.74798  0.44249  1.0000
  C   C204      1.0  0.34365  0.75952  0.36988  1.0000
  C   C205      1.0  0.33490  0.76730  0.29626  1.0000
  C   C206      1.0  0.31095  0.76273  0.29330  1.0000
  C   C207      1.0  0.24576  0.69736  0.40778  1.0000
  C   C208      1.0  0.24122  0.67343  0.40455  1.0000
  C   C209      1.0  0.24899  0.66473  0.33073  1.0000
  C   C210      1.0  0.26046  0.68112  0.25816  1.0000
  C   C211      1.0  0.26430  0.70479  0.25985  1.0000
  C   C212      1.0  0.24234  0.75100  0.42803  1.0000
  C   C213      1.0  0.22958  0.76372  0.42970  1.0000
  C   C214      1.0  0.23041  0.77844  0.35621  1.0000
  C   C215      1.0  0.24417  0.77903  0.27971  1.0000
  C   C216      1.0  0.25685  0.76622  0.27779  1.0000
  H   H115      1.0  0.23335  0.66278  0.46015  1.0000
  H   H116      1.0  0.24200  0.70339  0.46631  1.0000
  H   H117      1.0  0.27431  0.71641  0.20910  1.0000
  H   H118      1.0  0.26815  0.67690  0.20597  1.0000
  H   H119      1.0  0.29199  0.73392  0.49157  1.0000
  H   H120      1.0  0.33156  0.74022  0.49434  1.0000
  H   H121      1.0  0.24141  0.74090  0.48322  1.0000
  H   H122      1.0  0.21915  0.76161  0.48523  1.0000
  H   H123      1.0  0.24540  0.78923  0.22430  1.0000
  H   H124      1.0  0.26648  0.76720  0.22105  1.0000
  H   H125      1.0  0.30486  0.76654  0.23500  1.0000
  H   H126      1.0  0.34555  0.77524  0.24072  1.0000
  N   N28       1.0  0.74765  0.47853  0.35046  1.0000
  C   C217      1.0  0.72215  0.46442  0.33630  1.0000
  C   C218      1.0  0.76055  0.50436  0.35224  1.0000
  C   C219      1.0  0.75910  0.46449  0.36483  1.0000
  C   C220      1.0  0.75258  0.44906  0.44090  1.0000
  C   C221      1.0  0.75655  0.42932  0.44242  1.0000
  C   C222      1.0  0.76813  0.42455  0.36985  1.0000
  C   C223      1.0  0.77588  0.44108  0.29621  1.0000
  C   C224      1.0  0.77131  0.46046  0.29330  1.0000
  C   C225      1.0  0.70587  0.46021  0.40785  1.0000
  C   C226      1.0  0.68194  0.44080  0.40463  1.0000
  C   C227      1.0  0.67324  0.42435  0.33076  1.0000
  C   C228      1.0  0.68964  0.42927  0.25823  1.0000
  C   C229      1.0  0.71331  0.44910  0.25993  1.0000
  C   C230      1.0  0.75949  0.51727  0.42807  1.0000
  C   C231      1.0  0.77221  0.54275  0.42971  1.0000
  C   C232      1.0  0.78695  0.55664  0.35625  1.0000
  C   C233      1.0  0.78756  0.54347  0.27980  1.0000
  C   C234      1.0  0.77474  0.51798  0.27788  1.0000
  H   H127      1.0  0.67127  0.43804  0.46014  1.0000
  H   H128      1.0  0.71188  0.47001  0.46637  1.0000
  H   H129      1.0  0.72494  0.45071  0.20921  1.0000
  H   H130      1.0  0.68543  0.41737  0.20601  1.0000
  H   H131      1.0  0.74247  0.45055  0.49155  1.0000
  H   H132      1.0  0.74882  0.41730  0.49429  1.0000
  H   H133      1.0  0.74938  0.50812  0.48325  1.0000
  H   H134      1.0  0.77009  0.55108  0.48520  1.0000
  H   H135      1.0  0.79776  0.55243  0.22440  1.0000
  H   H136      1.0  0.77573  0.50933  0.22117  1.0000
  H   H137      1.0  0.77508  0.47032  0.23495  1.0000
  H   H138      1.0  0.78383  0.43839  0.24067  1.0000
  N   N29       1.0  0.53021  0.26062  0.35043  1.0000
  C   C235      1.0  0.54436  0.24926  0.33635  1.0000
  C   C236      1.0  0.50438  0.24768  0.35219  1.0000
  C   C237      1.0  0.54423  0.28611  0.36477  1.0000
  C   C238      1.0  0.55962  0.29502  0.44093  1.0000
  C   C239      1.0  0.57935  0.31873  0.44234  1.0000
  C   C240      1.0  0.58406  0.33508  0.36980  1.0000
  C   C241      1.0  0.56754  0.32629  0.29617  1.0000
  C   C242      1.0  0.54820  0.30232  0.29322  1.0000
  C   C243      1.0  0.54854  0.23718  0.40796  1.0000
  C   C244      1.0  0.56797  0.23269  0.40476  1.0000
  C   C245      1.0  0.58444  0.24046  0.33092  1.0000
  C   C246      1.0  0.57950  0.25190  0.25831  1.0000
  C   C247      1.0  0.55967  0.25574  0.25996  1.0000
  C   C248      1.0  0.49146  0.23377  0.42812  1.0000
  C   C249      1.0  0.46598  0.22104  0.42980  1.0000
  C   C250      1.0  0.45210  0.22186  0.35627  1.0000
  C   C251      1.0  0.46527  0.23559  0.27973  1.0000
  C   C252      1.0  0.49076  0.24823  0.27780  1.0000
  H   H139      1.0  0.57073  0.22478  0.46028  1.0000
  H   H140      1.0  0.53873  0.23339  0.46644  1.0000
  H   H141      1.0  0.55804  0.26574  0.20921  1.0000
  H   H142      1.0  0.59141  0.25958  0.20609  1.0000
  H   H143      1.0  0.55813  0.28343  0.49161  1.0000
  H   H144      1.0  0.59134  0.32308  0.49437  1.0000
  H   H145      1.0  0.50062  0.23284  0.48334  1.0000
  H   H146      1.0  0.45765  0.21062  0.48535  1.0000
  H   H147      1.0  0.45632  0.23682  0.22429  1.0000
  H   H148      1.0  0.49941  0.25784  0.22102  1.0000
  H   H149      1.0  0.53834  0.29621  0.23486  1.0000
  H   H150      1.0  0.57021  0.33693  0.24061  1.0000
  N   N30       1.0  0.74818  0.26097  0.35031  1.0000
  C   C253      1.0  0.75951  0.28647  0.33602  1.0000
  C   C254      1.0  0.76113  0.24806  0.35192  1.0000
  C   C255      1.0  0.72268  0.24955  0.36480  1.0000
  C   C256      1.0  0.71379  0.25604  0.44095  1.0000
  C   C257      1.0  0.69008  0.25211  0.44235  1.0000
  C   C258      1.0  0.67372  0.24052  0.36981  1.0000
  C   C259      1.0  0.68250  0.23276  0.29617  1.0000
  C   C260      1.0  0.70646  0.23735  0.29321  1.0000
  C   C261      1.0  0.77156  0.30274  0.40770  1.0000
  C   C262      1.0  0.77601  0.32665  0.40459  1.0000
  C   C263      1.0  0.76823  0.33534  0.33079  1.0000
  C   C264      1.0  0.75683  0.31897  0.25811  1.0000
  C   C265      1.0  0.75306  0.29533  0.25963  1.0000
  C   C266      1.0  0.77515  0.24912  0.42761  1.0000
  C   C267      1.0  0.78788  0.23636  0.42919  1.0000
  C   C268      1.0  0.78698  0.22156  0.35582  1.0000
  C   C269      1.0  0.77319  0.22099  0.27946  1.0000
  C   C270      1.0  0.76053  0.23383  0.27762  1.0000
  H   H151      1.0  0.78385  0.33728  0.46026  1.0000
  H   H152      1.0  0.77529  0.29669  0.46624  1.0000
  H   H153      1.0  0.74305  0.28369  0.20895  1.0000
  H   H154      1.0  0.74915  0.32320  0.20590  1.0000
  H   H155      1.0  0.72538  0.26612  0.49163  1.0000
  H   H156      1.0  0.68576  0.25977  0.49440  1.0000
  H   H157      1.0  0.77615  0.25925  0.48277  1.0000
  H   H158      1.0  0.79834  0.23848  0.48464  1.0000
  H   H159      1.0  0.77189  0.21075  0.22410  1.0000
  H   H160      1.0  0.75086  0.23282  0.22096  1.0000
  H   H161      1.0  0.71256  0.23359  0.23484  1.0000
  H   H162      1.0  0.67187  0.22485  0.24056  1.0000
  N   N31       1.0  0.19358  0.37778  0.41863  1.0000
  C   C271      1.0  0.20534  0.40215  0.43184  1.0000
  C   C272      1.0  0.21708  0.41750  0.35659  1.0000
  C   C273      1.0  0.20375  0.41033  0.51709  1.0000
  O   O37       1.0  0.20744  0.40103  0.58289  1.0000
  O   O38       1.0  0.19116  0.41963  0.53126  1.0000
  H   H163      1.0  0.18571  0.42546  0.48876  1.0000
  N   N32       1.0  0.63160  0.80811  0.41934  1.0000
  C   C274      1.0  0.60719  0.79531  0.43229  1.0000
  C   C275      1.0  0.59180  0.79149  0.35693  1.0000
  C   C276      1.0  0.59898  0.78551  0.51746  1.0000
  O   O39       1.0  0.60839  0.79829  0.58367  1.0000
  O   O40       1.0  0.58939  0.76360  0.53173  1.0000
  H   H164      1.0  0.58347  0.75232  0.48922  1.0000
  N   N33       1.0  0.20137  0.81523  0.41862  1.0000
  C   C277      1.0  0.21399  0.80347  0.43176  1.0000
  C   C278      1.0  0.21757  0.79171  0.35652  1.0000
  C   C279      1.0  0.22379  0.80507  0.51693  1.0000
  O   O41       1.0  0.21100  0.80174  0.58310  1.0000
  O   O42       1.0  0.24569  0.81746  0.53116  1.0000
  H   H165      1.0  0.25697  0.82279  0.48865  1.0000
  N   N34       1.0  0.82371  0.62247  0.41860  1.0000
  C   C280      1.0  0.81195  0.59810  0.43177  1.0000
  C   C281      1.0  0.80021  0.58275  0.35653  1.0000
  C   C282      1.0  0.81351  0.58991  0.51700  1.0000
  O   O43       1.0  0.81011  0.59935  0.58305  1.0000
  O   O44       1.0  0.82592  0.58044  0.53146  1.0000
  H   H166      1.0  0.83130  0.57450  0.48906  1.0000
  N   N35       1.0  0.38627  0.19282  0.41861  1.0000
  C   C283      1.0  0.41064  0.20542  0.43179  1.0000
  C   C284      1.0  0.42599  0.20902  0.35655  1.0000
  C   C285      1.0  0.41883  0.21521  0.51701  1.0000
  O   O45       1.0  0.40954  0.20224  0.58286  1.0000
  O   O46       1.0  0.42814  0.23710  0.53112  1.0000
  H   H167      1.0  0.43397  0.24838  0.48858  1.0000
  N   N36       1.0  0.81584  0.18458  0.41877  1.0000
  C   C286      1.0  0.80335  0.19649  0.43167  1.0000
  C   C287      1.0  0.79974  0.20818  0.35620  1.0000
  C   C288      1.0  0.79366  0.19509  0.51691  1.0000
  O   O47       1.0  0.80652  0.19854  0.58294  1.0000
  O   O48       1.0  0.77177  0.18277  0.53155  1.0000
  H   H168      1.0  0.76044  0.17738  0.48923  1.0000
  C   C289      1.0  0.21657  0.18250  0.36140  1.0000
  N   N37       1.0  0.19715  0.20297  0.42470  1.0000
  C   C290      1.0  0.20934  0.19079  0.43834  1.0000
  C   C291      1.0  0.21592  0.18955  0.52684  1.0000
  O   O49       1.0  0.20050  0.18343  0.58567  1.0000
  O   O50       1.0  0.23692  0.20243  0.55304  1.0000
  H   H169      1.0  0.24971  0.20958  0.51717  1.0000
  C   C292      1.0  0.83345  0.02559  0.36014  1.0000
  N   N38       1.0  0.81981  0.98543  0.41729  1.0000
  C   C293      1.0  0.83352  0.00984  0.42869  1.0000
  C   C294      1.0  0.84798  0.01715  0.50482  1.0000
  O   O51       1.0  0.86659  0.01632  0.49800  1.0000
  O   O52       1.0  0.83922  0.01293  0.58175  1.0000
  H   H170      1.0  0.82527  0.01188  0.59574  1.0000
  C   C295      1.0  0.98314  0.79220  0.36143  1.0000
  N   N39       1.0  0.02304  0.81160  0.42473  1.0000
  C   C296      1.0  0.99867  0.79938  0.43837  1.0000
  C   C297      1.0  0.99083  0.79281  0.52680  1.0000
  O   O53       1.0  0.00028  0.80804  0.58617  1.0000
  O   O54       1.0  0.98248  0.77179  0.55315  1.0000
  H   H171      1.0  0.97672  0.75898  0.51730  1.0000
  C   C298      1.0  0.80069  0.81752  0.36143  1.0000
  N   N40       1.0  0.82014  0.79709  0.42466  1.0000
  C   C299      1.0  0.80791  0.80922  0.43838  1.0000
  C   C300      1.0  0.80132  0.81042  0.52683  1.0000
  O   O55       1.0  0.81656  0.81625  0.58621  1.0000
  O   O56       1.0  0.78030  0.79777  0.55315  1.0000
  H   H172      1.0  0.76750  0.79072  0.51727  1.0000
  C   C301      1.0  0.19105  0.97461  0.36138  1.0000
  N   N41       1.0  0.21153  0.01451  0.42468  1.0000
  C   C302      1.0  0.19936  0.99014  0.43831  1.0000
  C   C303      1.0  0.19813  0.98232  0.52680  1.0000
  O   O57       1.0  0.19202  0.99160  0.58567  1.0000
  O   O58       1.0  0.21099  0.97417  0.55294  1.0000
  H   H173      1.0  0.21814  0.96853  0.51703  1.0000
  C   C304      1.0  0.03445  0.20827  0.36157  1.0000
  N   N42       1.0  0.99458  0.18896  0.42480  1.0000
  C   C305      1.0  0.01894  0.20105  0.43852  1.0000
  C   C306      1.0  0.02679  0.20756  0.52698  1.0000
  O   O59       1.0  0.01733  0.19204  0.58537  1.0000
  O   O60       1.0  0.03465  0.22843  0.55416  1.0000
  H   H174      1.0  0.04033  0.24131  0.51878  1.0000
  C   C307      1.0  0.24751  0.59729  0.36501  1.0000
  N   N43       1.0  0.24699  0.63222  0.41916  1.0000
  C   C308      1.0  0.24678  0.61131  0.43855  1.0000
  C   C309      1.0  0.24421  0.60457  0.52844  1.0000
  O   O61       1.0  0.25548  0.62001  0.58588  1.0000
  O   O62       1.0  0.22541  0.58611  0.55025  1.0000
  H   H175      1.0  0.22139  0.58104  0.60686  1.0000
  C   C310      1.0  0.41154  0.64194  0.36484  1.0000
  N   N44       1.0  0.37656  0.60653  0.41912  1.0000
  C   C311      1.0  0.39747  0.62725  0.43842  1.0000
  C   C312      1.0  0.40418  0.63143  0.52833  1.0000
  O   O63       1.0  0.38874  0.62735  0.58563  1.0000
  O   O64       1.0  0.42256  0.63094  0.55030  1.0000
  H   H176      1.0  0.42758  0.63195  0.60696  1.0000
  C   C313      1.0  0.36695  0.76104  0.36513  1.0000
  N   N45       1.0  0.40240  0.76155  0.41938  1.0000
  C   C314      1.0  0.38166  0.76169  0.43871  1.0000
  C   C315      1.0  0.37736  0.76416  0.52862  1.0000
  O   O65       1.0  0.38149  0.75270  0.58532  1.0000
  O   O66       1.0  0.37891  0.78353  0.55018  1.0000
  H   H177      1.0  0.37815  0.78774  0.60677  1.0000
  C   C316      1.0  0.76967  0.40279  0.36503  1.0000
  N   N46       1.0  0.77017  0.36784  0.41919  1.0000
  C   C317      1.0  0.77036  0.38875  0.43857  1.0000
  C   C318      1.0  0.77289  0.39550  0.52846  1.0000
  O   O67       1.0  0.76134  0.37996  0.58527  1.0000
  O   O68       1.0  0.79180  0.41374  0.55073  1.0000
  H   H178      1.0  0.79577  0.41870  0.60747  1.0000
  C   C319      1.0  0.60579  0.35839  0.36496  1.0000
  N   N47       1.0  0.64071  0.39384  0.41914  1.0000
  C   C320      1.0  0.61980  0.37315  0.43852  1.0000
  C   C321      1.0  0.61304  0.36899  0.52839  1.0000
  O   O69       1.0  0.62847  0.37318  0.58591  1.0000
  O   O70       1.0  0.59455  0.36929  0.55009  1.0000
  H   H179      1.0  0.58947  0.36825  0.60667  1.0000
  C   C322      1.0  0.65041  0.23897  0.36502  1.0000
  N   N48       1.0  0.61499  0.23850  0.41925  1.0000
  C   C323      1.0  0.63570  0.23830  0.43859  1.0000
  C   C324      1.0  0.63987  0.23574  0.52848  1.0000
  O   O71       1.0  0.63574  0.24706  0.58585  1.0000
  O   O72       1.0  0.63943  0.21690  0.55037  1.0000
  H   H180      1.0  0.64045  0.21288  0.60701  1.0000
