data_image0
_chemical_formula_structural       C3NC3NC5NC5NC20H18NHNHNHNHC3NC3NC5NC5NC20H18NHNHNHNHC3NC3NC5NC5NC20H18NHNHNHNHCNC3H2CO2CHCNC3H2CO2CHCNC3H2CO2CHCNC3H2CO2CHCNC3H2CO2CHCNC3H2CO2CHC8H8C8H8C8H8C4HC2NHCHO2H2CH2C4HC2NHCHO2H2CH2C4HC2NHCHO2H2CH2C4HC2NHCHO2H2CH2C4HC2NHCHO2H2CH2C4HC2NHCHO2H2CH2
_chemical_formula_sum              "C216 N36 H150 O24"
_cell_length_a       57.737
_cell_length_b       57.7371
_cell_length_c       15.0268
_cell_angle_alpha    89.9322
_cell_angle_beta     90.0678
_cell_angle_gamma    120

_space_group_name_H-M_alt    "P 1"
_space_group_IT_number       1

loop_
  _space_group_symop_operation_xyz
  'x, y, z'

loop_
  _atom_site_type_symbol
  _atom_site_label
  _atom_site_symmetry_multiplicity
  _atom_site_fract_x
  _atom_site_fract_y
  _atom_site_fract_z
  _atom_site_occupancy
  C   C1        1.0  0.01692  0.47069  0.29471  1.0000
  C   C2        1.0  0.04439  0.48657  0.29778  1.0000
  C   C3        1.0  0.05067  0.51328  0.30076  1.0000
  N   N1        1.0  0.02691  0.51265  0.29858  1.0000
  C   C4        1.0  0.00584  0.48738  0.29631  1.0000
  C   C5        1.0  0.97802  0.47846  0.29781  1.0000
  C   C6        1.0  0.96676  0.49538  0.30088  1.0000
  N   N2        1.0  0.97982  0.52238  0.29935  1.0000
  C   C7        1.0  0.96283  0.53199  0.30528  1.0000
  C   C8        1.0  0.93716  0.50970  0.31053  1.0000
  C   C9        1.0  0.93957  0.48711  0.30700  1.0000
  C   C10       1.0  0.96934  0.55916  0.30626  1.0000
  C   C11       1.0  0.99564  0.58152  0.30040  1.0000
  N   N3        1.0  0.01940  0.58215  0.29826  1.0000
  C   C12       1.0  0.04046  0.60743  0.29599  1.0000
  C   C13       1.0  0.02939  0.62411  0.29375  1.0000
  C   C14       1.0  0.00192  0.60824  0.29698  1.0000
  C   C15       1.0  0.06829  0.61635  0.29802  1.0000
  C   C16       1.0  0.07955  0.59944  0.30115  1.0000
  N   N4        1.0  0.06649  0.57244  0.29951  1.0000
  C   C17       1.0  0.08349  0.56282  0.30539  1.0000
  C   C18       1.0  0.10915  0.58511  0.31075  1.0000
  C   C19       1.0  0.10674  0.60770  0.30735  1.0000
  C   C20       1.0  0.07698  0.53565  0.30639  1.0000
  C   C21       1.0  0.09836  0.53046  0.31871  1.0000
  C   C22       1.0  0.11385  0.53060  0.24580  1.0000
  C   C23       1.0  0.13551  0.52630  0.25953  1.0000
  C   C24       1.0  0.14183  0.52161  0.34589  1.0000
  C   C25       1.0  0.08632  0.64438  0.29957  1.0000
  C   C26       1.0  0.09589  0.65878  0.21921  1.0000
  C   C27       1.0  0.11472  0.68627  0.22092  1.0000
  C   C28       1.0  0.12435  0.69972  0.30289  1.0000
  C   C29       1.0  0.94798  0.56437  0.31879  1.0000
  C   C30       1.0  0.90472  0.57349  0.34630  1.0000
  C   C31       1.0  0.91089  0.56874  0.25990  1.0000
  C   C32       1.0  0.93245  0.56430  0.24600  1.0000
  C   C33       1.0  0.95997  0.45043  0.29932  1.0000
  C   C34       1.0  0.95031  0.43610  0.21894  1.0000
  C   C35       1.0  0.93139  0.40863  0.22061  1.0000
  C   C36       1.0  0.92174  0.39515  0.30257  1.0000
  H   H1        1.0  0.92415  0.39862  0.16191  1.0000
  H   H2        1.0  0.95656  0.44564  0.15892  1.0000
  H   H3        1.0  0.00694  0.45026  0.29351  1.0000
  H   H4        1.0  0.05740  0.47942  0.29841  1.0000
  H   H5        1.0  0.02518  0.52831  0.30214  1.0000
  H   H6        1.0  0.02113  0.56652  0.30321  1.0000
  H   H7        1.0  0.92390  0.46795  0.31029  1.0000
  H   H8        1.0  0.91945  0.50955  0.31585  1.0000
  H   H9        1.0  0.93651  0.56070  0.18287  1.0000
  H   H10       1.0  0.89955  0.56825  0.20681  1.0000
  H   H11       1.0  0.98891  0.61539  0.29761  1.0000
  H   H12       1.0  0.03936  0.64455  0.29292  1.0000
  H   H13       1.0  0.12687  0.58526  0.31610  1.0000
  H   H14       1.0  0.12241  0.62687  0.31072  1.0000
  H   H15       1.0  0.08960  0.64928  0.15917  1.0000
  H   H16       1.0  0.12183  0.69634  0.16223  1.0000
  H   H17       1.0  0.14684  0.52689  0.20637  1.0000
  H   H18       1.0  0.10971  0.53421  0.18272  1.0000
  N   N5        1.0  0.14469  0.72684  0.30787  1.0000
  H   H19       1.0  0.13886  0.73827  0.27231  1.0000
  N   N6        1.0  0.16455  0.51881  0.35694  1.0000
  H   H20       1.0  0.17758  0.53329  0.40015  1.0000
  N   N7        1.0  0.90124  0.36810  0.30751  1.0000
  H   H21       1.0  0.90688  0.35657  0.27174  1.0000
  N   N8        1.0  0.88215  0.57652  0.35749  1.0000
  H   H22       1.0  0.86909  0.56211  0.40085  1.0000
  C   C37       1.0  0.60075  0.61950  0.29326  1.0000
  C   C38       1.0  0.58487  0.63109  0.29644  1.0000
  C   C39       1.0  0.55817  0.61066  0.30055  1.0000
  N   N9        1.0  0.55881  0.58753  0.29864  1.0000
  C   C40       1.0  0.58409  0.59175  0.29603  1.0000
  C   C41       1.0  0.59302  0.57286  0.29851  1.0000
  C   C42       1.0  0.57611  0.54469  0.30203  1.0000
  N   N10       1.0  0.54912  0.53074  0.30016  1.0000
  C   C43       1.0  0.53952  0.50414  0.30641  1.0000
  C   C44       1.0  0.56181  0.50078  0.31221  1.0000
  C   C45       1.0  0.58439  0.52578  0.30881  1.0000
  C   C46       1.0  0.51235  0.48347  0.30720  1.0000
  C   C47       1.0  0.48998  0.48739  0.30112  1.0000
  N   N11       1.0  0.48934  0.51052  0.29909  1.0000
  C   C48       1.0  0.46406  0.50630  0.29668  1.0000
  C   C49       1.0  0.44739  0.47855  0.29441  1.0000
  C   C50       1.0  0.46327  0.46696  0.29746  1.0000
  C   C51       1.0  0.45513  0.52520  0.29876  1.0000
  C   C52       1.0  0.47204  0.55337  0.30215  1.0000
  N   N12       1.0  0.49904  0.56731  0.30020  1.0000
  C   C53       1.0  0.50865  0.59391  0.30640  1.0000
  C   C54       1.0  0.48636  0.59728  0.31225  1.0000
  C   C55       1.0  0.46378  0.57228  0.30890  1.0000
  C   C56       1.0  0.53582  0.61458  0.30700  1.0000
  C   C57       1.0  0.54103  0.64116  0.31938  1.0000
  C   C58       1.0  0.54078  0.65653  0.24657  1.0000
  C   C59       1.0  0.54510  0.68248  0.26042  1.0000
  C   C60       1.0  0.54989  0.69346  0.34676  1.0000
  C   C61       1.0  0.42710  0.51519  0.30050  1.0000
  C   C62       1.0  0.41266  0.51041  0.22023  1.0000
  C   C63       1.0  0.38517  0.50175  0.22212  1.0000
  C   C64       1.0  0.37177  0.49791  0.30418  1.0000
  C   C65       1.0  0.50714  0.45689  0.31965  1.0000
  C   C66       1.0  0.49801  0.40448  0.34703  1.0000
  C   C67       1.0  0.50281  0.41549  0.26068  1.0000
  C   C68       1.0  0.50726  0.44150  0.24684  1.0000
  C   C69       1.0  0.62106  0.58287  0.30012  1.0000
  C   C70       1.0  0.63541  0.58754  0.21980  1.0000
  C   C71       1.0  0.66287  0.59609  0.22159  1.0000
  C   C72       1.0  0.67633  0.59989  0.30360  1.0000
  H   H23       1.0  0.67289  0.59888  0.16292  1.0000
  H   H24       1.0  0.62588  0.58428  0.15974  1.0000
  H   H25       1.0  0.62119  0.62997  0.29229  1.0000
  H   H26       1.0  0.59202  0.65125  0.29714  1.0000
  H   H27       1.0  0.54320  0.57017  0.30440  1.0000
  H   H28       1.0  0.50498  0.52789  0.30379  1.0000
  H   H29       1.0  0.60356  0.52928  0.31224  1.0000
  H   H30       1.0  0.56196  0.48321  0.31781  1.0000
  H   H31       1.0  0.51091  0.44924  0.18376  1.0000
  H   H32       1.0  0.50334  0.40469  0.20758  1.0000
  H   H33       1.0  0.45613  0.44680  0.29818  1.0000
  H   H34       1.0  0.42695  0.46808  0.29336  1.0000
  H   H35       1.0  0.48621  0.61484  0.31779  1.0000
  H   H36       1.0  0.44461  0.56878  0.31234  1.0000
  H   H37       1.0  0.42213  0.51364  0.16014  1.0000
  H   H38       1.0  0.37508  0.49883  0.16349  1.0000
  H   H39       1.0  0.54443  0.69325  0.20734  1.0000
  H   H40       1.0  0.53709  0.64880  0.18352  1.0000
  N   N13       1.0  0.34467  0.49117  0.30930  1.0000
  H   H41       1.0  0.33320  0.47394  0.27371  1.0000
  N   N14       1.0  0.55269  0.71896  0.35794  1.0000
  H   H42       1.0  0.53824  0.71748  0.40130  1.0000
  N   N15       1.0  0.70337  0.60640  0.30866  1.0000
  H   H43       1.0  0.71492  0.62358  0.27287  1.0000
  N   N16       1.0  0.49498  0.37887  0.35815  1.0000
  H   H44       1.0  0.50937  0.38019  0.40156  1.0000
  C   C73       1.0  0.45194  0.05447  0.29648  1.0000
  C   C74       1.0  0.44036  0.02700  0.29940  1.0000
  C   C75       1.0  0.46081  0.02074  0.30245  1.0000
  N   N17       1.0  0.48392  0.04450  0.30026  1.0000
  C   C76       1.0  0.47970  0.06556  0.29806  1.0000
  C   C77       1.0  0.49860  0.09339  0.29962  1.0000
  C   C78       1.0  0.52678  0.10467  0.30251  1.0000
  N   N18       1.0  0.54073  0.09162  0.30106  1.0000
  C   C79       1.0  0.56734  0.10863  0.30661  1.0000
  C   C80       1.0  0.57071  0.13430  0.31155  1.0000
  C   C81       1.0  0.54570  0.13187  0.30832  1.0000
  C   C82       1.0  0.58801  0.10214  0.30769  1.0000
  C   C83       1.0  0.58409  0.07584  0.30244  1.0000
  N   N19       1.0  0.56098  0.05207  0.30020  1.0000
  C   C84       1.0  0.56519  0.03101  0.29833  1.0000
  C   C85       1.0  0.59296  0.04210  0.29699  1.0000
  C   C86       1.0  0.60454  0.06956  0.29988  1.0000
  C   C87       1.0  0.54630  0.00318  0.29991  1.0000
  C   C88       1.0  0.51812  0.99190  0.30283  1.0000
  N   N20       1.0  0.50417  0.00495  0.30136  1.0000
  C   C89       1.0  0.47756  0.98794  0.30698  1.0000
  C   C90       1.0  0.47420  0.96227  0.31198  1.0000
  C   C91       1.0  0.49920  0.96470  0.30872  1.0000
  C   C92       1.0  0.45689  0.99444  0.30797  1.0000
  C   C93       1.0  0.43031  0.97303  0.32006  1.0000
  C   C94       1.0  0.41496  0.95762  0.24698  1.0000
  C   C95       1.0  0.38899  0.93596  0.26046  1.0000
  C   C96       1.0  0.37798  0.92956  0.34674  1.0000
  C   C97       1.0  0.55631  0.98515  0.30160  1.0000
  C   C98       1.0  0.56116  0.97562  0.22131  1.0000
  C   C99       1.0  0.56984  0.95680  0.22315  1.0000
  C   C100      1.0  0.57359  0.94711  0.30517  1.0000
  C   C101      1.0  0.61459  0.12354  0.31995  1.0000
  C   C102      1.0  0.66703  0.16681  0.34681  1.0000
  C   C103      1.0  0.65600  0.16051  0.26051  1.0000
  C   C104      1.0  0.62998  0.13895  0.24692  1.0000
  C   C105      1.0  0.48860  0.11142  0.30124  1.0000
  C   C106      1.0  0.48380  0.12105  0.22091  1.0000
  C   C107      1.0  0.47528  0.13999  0.22269  1.0000
  C   C108      1.0  0.47157  0.14967  0.30468  1.0000
  H   H45       1.0  0.47240  0.14719  0.16401  1.0000
  H   H46       1.0  0.48701  0.11478  0.16085  1.0000
  H   H47       1.0  0.44147  0.06444  0.29541  1.0000
  H   H48       1.0  0.42020  0.01399  0.30020  1.0000
  H   H49       1.0  0.50131  0.04624  0.30416  1.0000
  H   H50       1.0  0.54358  0.05033  0.30336  1.0000
  H   H51       1.0  0.54220  0.14754  0.31130  1.0000
  H   H52       1.0  0.58828  0.15203  0.31655  1.0000
  H   H53       1.0  0.62224  0.13478  0.18385  1.0000
  H   H54       1.0  0.66680  0.17177  0.20723  1.0000
  H   H55       1.0  0.62470  0.08258  0.30082  1.0000
  H   H56       1.0  0.60343  0.03213  0.29638  1.0000
  H   H57       1.0  0.45663  0.94454  0.31701  1.0000
  H   H58       1.0  0.50270  0.94903  0.31170  1.0000
  H   H59       1.0  0.55797  0.98193  0.16123  1.0000
  H   H60       1.0  0.57278  0.94968  0.16449  1.0000
  H   H61       1.0  0.37823  0.92469  0.20716  1.0000
  H   H62       1.0  0.42271  0.96182  0.18395  1.0000
  N   N21       1.0  0.58033  0.92674  0.31023  1.0000
  H   H63       1.0  0.59757  0.93254  0.27472  1.0000
  N   N22       1.0  0.35244  0.90686  0.35750  1.0000
  H   H64       1.0  0.35387  0.89377  0.40057  1.0000
  N   N23       1.0  0.46506  0.17019  0.30970  1.0000
  H   H65       1.0  0.44785  0.16456  0.27406  1.0000
  N   N24       1.0  0.69266  0.18937  0.35765  1.0000
  H   H66       1.0  0.69138  0.20250  0.40080  1.0000
  C   C109      1.0  0.19602  0.49384  0.29157  1.0000
  N   N25       1.0  0.22081  0.49713  0.28408  1.0000
  C   C110      1.0  0.28073  0.52513  0.28418  1.0000
  C   C111      1.0  0.30597  0.52772  0.26702  1.0000
  C   C112      1.0  0.31263  0.50872  0.29855  1.0000
  H   H67       1.0  0.31989  0.54381  0.23114  1.0000
  H   H68       1.0  0.18651  0.49475  0.23538  1.0000
  C   C113      1.0  0.27614  0.54526  0.25368  1.0000
  O   O1        1.0  0.26852  0.54332  0.17676  1.0000
  O   O2        1.0  0.26925  0.55756  0.30440  1.0000
  C   C114      1.0  0.33960  0.51273  0.27837  1.0000
  H   H69       1.0  0.34258  0.51502  0.20625  1.0000
  C   C115      1.0  0.57768  0.77544  0.29238  1.0000
  N   N26       1.0  0.57437  0.79693  0.28485  1.0000
  C   C116      1.0  0.54636  0.82886  0.28486  1.0000
  C   C117      1.0  0.54377  0.85151  0.26777  1.0000
  C   C118      1.0  0.56279  0.87716  0.29926  1.0000
  H   H70       1.0  0.52768  0.84938  0.23195  1.0000
  H   H71       1.0  0.57673  0.76503  0.23620  1.0000
  C   C119      1.0  0.52618  0.80418  0.25457  1.0000
  O   O3        1.0  0.52846  0.79856  0.17790  1.0000
  O   O4        1.0  0.51408  0.78479  0.30470  1.0000
  C   C120      1.0  0.55879  0.90015  0.27913  1.0000
  H   H72       1.0  0.55652  0.90091  0.20700  1.0000
  C   C121      1.0  0.29598  0.87558  0.29165  1.0000
  N   N27       1.0  0.27447  0.85080  0.28381  1.0000
  C   C122      1.0  0.24255  0.79089  0.28308  1.0000
  C   C123      1.0  0.21992  0.76566  0.26567  1.0000
  C   C124      1.0  0.19425  0.75894  0.29716  1.0000
  H   H73       1.0  0.22209  0.75177  0.22965  1.0000
  H   H74       1.0  0.30644  0.88512  0.23559  1.0000
  C   C125      1.0  0.26725  0.79551  0.25274  1.0000
  O   O5        1.0  0.27303  0.80310  0.17583  1.0000
  O   O6        1.0  0.28657  0.80248  0.30311  1.0000
  C   C126      1.0  0.17130  0.73196  0.27681  1.0000
  H   H75       1.0  0.17057  0.72903  0.20466  1.0000
  C   C127      1.0  0.85111  0.60199  0.29184  1.0000
  N   N28       1.0  0.82642  0.59896  0.28428  1.0000
  C   C128      1.0  0.76655  0.57151  0.28434  1.0000
  C   C129      1.0  0.74142  0.56918  0.26705  1.0000
  C   C130      1.0  0.73503  0.58839  0.29828  1.0000
  H   H76       1.0  0.72738  0.55315  0.23128  1.0000
  H   H77       1.0  0.86050  0.60089  0.23570  1.0000
  C   C131      1.0  0.77083  0.55119  0.25427  1.0000
  O   O7        1.0  0.77829  0.55279  0.17729  1.0000
  O   O8        1.0  0.77769  0.53877  0.30477  1.0000
  C   C132      1.0  0.70816  0.58466  0.27798  1.0000
  H   H78       1.0  0.70515  0.58237  0.20586  1.0000
  C   C133      1.0  0.46954  0.32241  0.29240  1.0000
  N   N29       1.0  0.47254  0.30074  0.28482  1.0000
  C   C134      1.0  0.49996  0.26828  0.28491  1.0000
  C   C135      1.0  0.50226  0.24547  0.26765  1.0000
  C   C136      1.0  0.48306  0.21987  0.29899  1.0000
  H   H79       1.0  0.51828  0.24746  0.23186  1.0000
  H   H80       1.0  0.47059  0.33291  0.23625  1.0000
  C   C137      1.0  0.52028  0.29290  0.25464  1.0000
  O   O9        1.0  0.51845  0.29869  0.17774  1.0000
  O   O10       1.0  0.53273  0.31204  0.30552  1.0000
  C   C138      1.0  0.48677  0.19673  0.27875  1.0000
  H   H81       1.0  0.48900  0.19600  0.20663  1.0000
  C   C139      1.0  0.74909  0.22027  0.29167  1.0000
  N   N30       1.0  0.77075  0.24494  0.28379  1.0000
  C   C140      1.0  0.80316  0.30485  0.28336  1.0000
  C   C141      1.0  0.82594  0.32998  0.26597  1.0000
  C   C142      1.0  0.85158  0.33639  0.29708  1.0000
  H   H82       1.0  0.82391  0.34402  0.23025  1.0000
  H   H83       1.0  0.73854  0.21083  0.23563  1.0000
  C   C143      1.0  0.77852  0.30059  0.25348  1.0000
  O   O11       1.0  0.77270  0.29264  0.17691  1.0000
  O   O12       1.0  0.75925  0.29352  0.30392  1.0000
  C   C144      1.0  0.87468  0.36327  0.27675  1.0000
  H   H84       1.0  0.87537  0.36627  0.20463  1.0000
  C   C145      1.0  0.12625  0.52130  0.41872  1.0000
  C   C146      1.0  0.10466  0.52569  0.40524  1.0000
  C   C147      1.0  0.11429  0.68545  0.38301  1.0000
  C   C148      1.0  0.09543  0.65796  0.38153  1.0000
  C   C149      1.0  0.94182  0.56918  0.40536  1.0000
  C   C150      1.0  0.92033  0.57369  0.41902  1.0000
  C   C151      1.0  0.95089  0.43681  0.38126  1.0000
  C   C152      1.0  0.93195  0.40934  0.38271  1.0000
  H   H85       1.0  0.92497  0.39991  0.44252  1.0000
  H   H86       1.0  0.95753  0.44690  0.44020  1.0000
  H   H87       1.0  0.95270  0.56907  0.45907  1.0000
  H   H88       1.0  0.91577  0.57662  0.48223  1.0000
  H   H89       1.0  0.08883  0.64783  0.44045  1.0000
  H   H90       1.0  0.12122  0.69487  0.44284  1.0000
  H   H91       1.0  0.09383  0.52576  0.45903  1.0000
  H   H92       1.0  0.13093  0.51844  0.48192  1.0000
  C   C153      1.0  0.55029  0.67815  0.41949  1.0000
  C   C154      1.0  0.54591  0.65219  0.40590  1.0000
  C   C155      1.0  0.38607  0.50204  0.38421  1.0000
  C   C156      1.0  0.41357  0.51068  0.38254  1.0000
  C   C157      1.0  0.50229  0.44584  0.40619  1.0000
  C   C158      1.0  0.49778  0.41982  0.41978  1.0000
  C   C159      1.0  0.63465  0.58737  0.38211  1.0000
  C   C160      1.0  0.66212  0.59587  0.38368  1.0000
  H   H93       1.0  0.67153  0.59832  0.44353  1.0000
  H   H94       1.0  0.62454  0.58391  0.44101  1.0000
  H   H95       1.0  0.50235  0.45676  0.45991  1.0000
  H   H96       1.0  0.49480  0.41226  0.48296  1.0000
  H   H97       1.0  0.42373  0.51419  0.44141  1.0000
  H   H98       1.0  0.37670  0.49957  0.44409  1.0000
  H   H99       1.0  0.54591  0.64126  0.45962  1.0000
  H   H100      1.0  0.55324  0.68566  0.48268  1.0000
  C   C161      1.0  0.39327  0.94505  0.41975  1.0000
  C   C162      1.0  0.41925  0.96665  0.40652  1.0000
  C   C163      1.0  0.56938  0.95715  0.38523  1.0000
  C   C164      1.0  0.56075  0.97602  0.38363  1.0000
  C   C165      1.0  0.62565  0.12983  0.40646  1.0000
  C   C166      1.0  0.65169  0.15133  0.41978  1.0000
  C   C167      1.0  0.48420  0.12055  0.38323  1.0000
  C   C168      1.0  0.47570  0.13952  0.38477  1.0000
  H   H101      1.0  0.47331  0.14649  0.44461  1.0000
  H   H102      1.0  0.48773  0.11393  0.44213  1.0000
  H   H103      1.0  0.61473  0.11903  0.46032  1.0000
  H   H104      1.0  0.65925  0.15597  0.48294  1.0000
  H   H105      1.0  0.55717  0.98257  0.44250  1.0000
  H   H106      1.0  0.57181  0.95017  0.44509  1.0000
  H   H107      1.0  0.43016  0.97744  0.46043  1.0000
  H   H108      1.0  0.38572  0.94034  0.48288  1.0000
  C   C169      1.0  0.18456  0.49122  0.37639  1.0000
  C   C170      1.0  0.23577  0.49743  0.35438  1.0000
  C   C171      1.0  0.22486  0.49353  0.44154  1.0000
  C   C172      1.0  0.19917  0.49071  0.45111  1.0000
  H   H109      1.0  0.19150  0.48951  0.51350  1.0000
  C   C173      1.0  0.26198  0.50275  0.33496  1.0000
  C   C174      1.0  0.29322  0.48720  0.34954  1.0000
  N   N31       1.0  0.26911  0.48501  0.36525  1.0000
  H   H110      1.0  0.29682  0.47295  0.37540  1.0000
  C   C175      1.0  0.23957  0.49507  0.51637  1.0000
  H   H111      1.0  0.27264  0.55950  0.36227  1.0000
  O   O13       1.0  0.22946  0.47708  0.57167  1.0000
  O   O14       1.0  0.25694  0.51768  0.54018  1.0000
  H   H112      1.0  0.26625  0.52108  0.59015  1.0000
  H   H113      1.0  0.35416  0.53161  0.30959  1.0000
  C   C176      1.0  0.15938  0.49200  0.38548  1.0000
  H   H114      1.0  0.15204  0.48806  0.45408  1.0000
  H   H115      1.0  0.14409  0.47639  0.34332  1.0000
  C   C177      1.0  0.58030  0.76655  0.37721  1.0000
  C   C178      1.0  0.57406  0.81156  0.35513  1.0000
  C   C179      1.0  0.57793  0.80447  0.44230  1.0000
  C   C180      1.0  0.58079  0.78162  0.45191  1.0000
  H   H116      1.0  0.58198  0.77512  0.51432  1.0000
  C   C181      1.0  0.56873  0.83244  0.33567  1.0000
  C   C182      1.0  0.58431  0.87923  0.35022  1.0000
  N   N32       1.0  0.58648  0.85729  0.36592  1.0000
  H   H117      1.0  0.59857  0.89707  0.37606  1.0000
  C   C183      1.0  0.57641  0.81762  0.51710  1.0000
  H   H118      1.0  0.51203  0.78606  0.36258  1.0000
  O   O15       1.0  0.59440  0.82546  0.57239  1.0000
  O   O16       1.0  0.55381  0.81240  0.54091  1.0000
  H   H119      1.0  0.55042  0.81829  0.59086  1.0000
  H   H120      1.0  0.53989  0.89579  0.31029  1.0000
  C   C184      1.0  0.57952  0.74058  0.38630  1.0000
  H   H121      1.0  0.58350  0.73717  0.45488  1.0000
  H   H122      1.0  0.59511  0.74092  0.34407  1.0000
  C   C185      1.0  0.30485  0.88691  0.37664  1.0000
  C   C186      1.0  0.25978  0.83576  0.35389  1.0000
  C   C187      1.0  0.26683  0.84656  0.44118  1.0000
  C   C188      1.0  0.28972  0.87223  0.45116  1.0000
  H   H123      1.0  0.29620  0.87978  0.51368  1.0000
  C   C189      1.0  0.23892  0.80956  0.33416  1.0000
  C   C190      1.0  0.19213  0.77829  0.34837  1.0000
  N   N33       1.0  0.21405  0.80238  0.36435  1.0000
  H   H124      1.0  0.17428  0.77465  0.37421  1.0000
  C   C191      1.0  0.25358  0.83169  0.51568  1.0000
  H   H125      1.0  0.28524  0.79925  0.36108  1.0000
  O   O17       1.0  0.24513  0.84174  0.56897  1.0000
  O   O18       1.0  0.26082  0.81609  0.54275  1.0000
  H   H126      1.0  0.25535  0.80707  0.59337  1.0000
  H   H127      1.0  0.17567  0.71740  0.30786  1.0000
  C   C192      1.0  0.33084  0.91205  0.38607  1.0000
  H   H128      1.0  0.33424  0.91930  0.45477  1.0000
  H   H129      1.0  0.33055  0.92740  0.34412  1.0000
  C   C193      1.0  0.86257  0.60449  0.37668  1.0000
  C   C194      1.0  0.81158  0.59886  0.35451  1.0000
  C   C195      1.0  0.82252  0.60268  0.44168  1.0000
  C   C196      1.0  0.84809  0.60520  0.45134  1.0000
  H   H130      1.0  0.85576  0.60636  0.51375  1.0000
  C   C197      1.0  0.78545  0.59380  0.33503  1.0000
  C   C198      1.0  0.75460  0.60983  0.34914  1.0000
  N   N34       1.0  0.77859  0.61174  0.36501  1.0000
  H   H131      1.0  0.75120  0.62422  0.37478  1.0000
  C   C199      1.0  0.80792  0.60135  0.51645  1.0000
  H   H132      1.0  0.77454  0.53699  0.36278  1.0000
  O   O19       1.0  0.81822  0.61937  0.57153  1.0000
  O   O20       1.0  0.79043  0.57883  0.54054  1.0000
  H   H133      1.0  0.78117  0.57555  0.59051  1.0000
  H   H134      1.0  0.69348  0.56584  0.30931  1.0000
  C   C200      1.0  0.88760  0.60342  0.38588  1.0000
  H   H135      1.0  0.89496  0.60730  0.45448  1.0000
  H   H136      1.0  0.90295  0.61895  0.34369  1.0000
  C   C201      1.0  0.46702  0.33131  0.37723  1.0000
  C   C202      1.0  0.47263  0.28595  0.35505  1.0000
  C   C203      1.0  0.46882  0.29302  0.44222  1.0000
  C   C204      1.0  0.46629  0.31606  0.45189  1.0000
  H   H137      1.0  0.46516  0.32255  0.51430  1.0000
  C   C205      1.0  0.47767  0.26488  0.33557  1.0000
  C   C206      1.0  0.46163  0.21799  0.34986  1.0000
  N   N35       1.0  0.45973  0.24006  0.36565  1.0000
  H   H138      1.0  0.44724  0.20019  0.37557  1.0000
  C   C207      1.0  0.47016  0.27971  0.51700  1.0000
  H   H139      1.0  0.53462  0.31053  0.36340  1.0000
  O   O21       1.0  0.45216  0.27197  0.57213  1.0000
  O   O22       1.0  0.49268  0.28471  0.54101  1.0000
  H   H140      1.0  0.49597  0.27870  0.59099  1.0000
  H   H141      1.0  0.50562  0.20087  0.30993  1.0000
  C   C208      1.0  0.46808  0.35740  0.38644  1.0000
  H   H142      1.0  0.46417  0.36082  0.45502  1.0000
  H   H143      1.0  0.45255  0.35725  0.34419  1.0000
  C   C209      1.0  0.74022  0.20891  0.37665  1.0000
  C   C210      1.0  0.78558  0.25986  0.35384  1.0000
  C   C211      1.0  0.77853  0.24904  0.44115  1.0000
  C   C212      1.0  0.75550  0.22347  0.45113  1.0000
  H   H144      1.0  0.74903  0.21589  0.51364  1.0000
  C   C213      1.0  0.80662  0.28597  0.33406  1.0000
  C   C214      1.0  0.85351  0.31684  0.34793  1.0000
  N   N36       1.0  0.83146  0.29285  0.36392  1.0000
  H   H145      1.0  0.87133  0.32026  0.37350  1.0000
  C   C215      1.0  0.79190  0.26372  0.51573  1.0000
  H   H146      1.0  0.76066  0.29689  0.36178  1.0000
  O   O23       1.0  0.79968  0.25347  0.57092  1.0000
  O   O24       1.0  0.78692  0.28125  0.53962  1.0000
  H   H147      1.0  0.79297  0.29056  0.58948  1.0000
  H   H148      1.0  0.87054  0.37794  0.30802  1.0000
  C   C216      1.0  0.71411  0.18391  0.38613  1.0000
  H   H149      1.0  0.71070  0.17663  0.45482  1.0000
  H   H150      1.0  0.71422  0.16850  0.34414  1.0000
