data_image0
_chemical_formula_structural       C4NC4NH4C2H2C4NC4NH4C2H2C4NC4NH4C2H2C2H2C3H2NC2H2C3H2NC2H2C3H2NC2H2C3H2NC2H2C3H2NC2H2C3H2NC2HC2H3C2H2C2HC2H3C2H2C2HC2H3C2H2C7H3NH2NC7H3NH2NC7H3NH2NC7H3NH2NC7H3NH2NC7H3NH2N
_chemical_formula_sum              "C120 N24 H90"
_cell_length_a       38.8026
_cell_length_b       38.8026
_cell_length_c       15.0153
_cell_angle_alpha    90
_cell_angle_beta     90
_cell_angle_gamma    120

_space_group_name_H-M_alt    "P 1"
_space_group_IT_number       1

loop_
  _space_group_symop_operation_xyz
  'x, y, z'

loop_
  _atom_site_type_symbol
  _atom_site_label
  _atom_site_symmetry_multiplicity
  _atom_site_fract_x
  _atom_site_fract_y
  _atom_site_fract_z
  _atom_site_occupancy
  C   C1        1.0  0.02070  0.51087  0.32923  1.0000
  C   C2        1.0  0.10603  0.55580  0.33049  1.0000
  C   C3        1.0  0.08328  0.57308  0.29931  1.0000
  C   C4        1.0  0.04132  0.55054  0.29819  1.0000
  N   N1        1.0  0.14677  0.57707  0.33019  1.0000
  C   C5        1.0  0.97823  0.48861  0.32963  1.0000
  C   C6        1.0  0.95749  0.44889  0.29896  1.0000
  C   C7        1.0  0.91553  0.42635  0.30085  1.0000
  C   C8        1.0  0.89290  0.44371  0.33240  1.0000
  N   N2        1.0  0.85217  0.42249  0.33267  1.0000
  H   H1        1.0  0.83727  0.39565  0.30917  1.0000
  H   H2        1.0  0.16157  0.60390  0.30658  1.0000
  H   H3        1.0  0.02545  0.56321  0.27426  1.0000
  H   H4        1.0  0.97327  0.43618  0.27473  1.0000
  C   C9        1.0  0.10103  0.61220  0.27161  1.0000
  C   C10       1.0  0.89767  0.38721  0.27326  1.0000
  H   H5        1.0  0.10621  0.61825  0.20712  1.0000
  H   H6        1.0  0.89321  0.38115  0.20864  1.0000
  C   C11       1.0  0.48798  0.50935  0.32966  1.0000
  C   C12       1.0  0.44298  0.54968  0.33066  1.0000
  C   C13       1.0  0.42576  0.50965  0.29944  1.0000
  C   C14       1.0  0.44834  0.49027  0.29846  1.0000
  N   N3        1.0  0.42168  0.56911  0.33024  1.0000
  C   C15       1.0  0.51028  0.48917  0.33016  1.0000
  C   C16       1.0  0.55003  0.50819  0.29961  1.0000
  C   C17       1.0  0.57259  0.48880  0.30155  1.0000
  C   C18       1.0  0.55524  0.44880  0.33302  1.0000
  N   N4        1.0  0.57647  0.42930  0.33328  1.0000
  H   H7        1.0  0.60333  0.44128  0.30989  1.0000
  H   H8        1.0  0.39485  0.55705  0.30660  1.0000
  H   H9        1.0  0.43572  0.46175  0.27448  1.0000
  H   H10       1.0  0.56273  0.53669  0.27543  1.0000
  C   C19       1.0  0.38669  0.48826  0.27146  1.0000
  C   C20       1.0  0.61175  0.51012  0.27408  1.0000
  H   H11       1.0  0.38065  0.48749  0.20700  1.0000
  H   H12       1.0  0.61788  0.51199  0.20945  1.0000
  C   C21       1.0  0.48913  0.97832  0.32979  1.0000
  C   C22       1.0  0.44884  0.89299  0.33250  1.0000
  C   C23       1.0  0.48880  0.91568  0.30083  1.0000
  C   C24       1.0  0.50816  0.95764  0.29901  1.0000
  N   N5        1.0  0.42938  0.85226  0.33272  1.0000
  C   C25       1.0  0.50925  0.02078  0.32931  1.0000
  C   C26       1.0  0.49013  0.04131  0.29816  1.0000
  C   C27       1.0  0.50948  0.08327  0.29910  1.0000
  C   C28       1.0  0.54951  0.10611  0.33026  1.0000
  N   N6        1.0  0.56890  0.14684  0.32985  1.0000
  H   H13       1.0  0.55679  0.16158  0.30636  1.0000
  H   H14       1.0  0.44138  0.83740  0.30933  1.0000
  H   H15       1.0  0.53662  0.97346  0.27465  1.0000
  H   H16       1.0  0.46160  0.02538  0.27424  1.0000
  C   C29       1.0  0.51009  0.89790  0.27284  1.0000
  C   C30       1.0  0.48806  0.10092  0.27113  1.0000
  H   H17       1.0  0.51091  0.89271  0.20835  1.0000
  H   H18       1.0  0.48768  0.10655  0.20674  1.0000
  C   C31       1.0  0.26115  0.45848  0.26243  1.0000
  C   C32       1.0  0.30041  0.46622  0.25404  1.0000
  H   H19       1.0  0.24927  0.46608  0.21025  1.0000
  H   H20       1.0  0.31552  0.47916  0.19663  1.0000
  C   C33       1.0  0.14405  0.46847  0.35420  1.0000
  C   C34       1.0  0.14308  0.44021  0.29361  1.0000
  C   C35       1.0  0.17329  0.43016  0.29396  1.0000
  H   H21       1.0  0.12139  0.42819  0.24584  1.0000
  H   H22       1.0  0.17278  0.41099  0.24648  1.0000
  N   N7        1.0  0.11944  0.48243  0.34071  1.0000
  C   C36       1.0  0.53979  0.80210  0.26330  1.0000
  C   C37       1.0  0.53205  0.83362  0.25510  1.0000
  H   H23       1.0  0.53217  0.78264  0.21107  1.0000
  H   H24       1.0  0.51907  0.83581  0.19777  1.0000
  C   C38       1.0  0.53004  0.67503  0.35459  1.0000
  C   C39       1.0  0.55824  0.70237  0.29396  1.0000
  C   C40       1.0  0.56822  0.74261  0.29440  1.0000
  H   H25       1.0  0.57027  0.69274  0.24611  1.0000
  H   H26       1.0  0.58736  0.76131  0.24691  1.0000
  N   N8        1.0  0.51617  0.63648  0.34108  1.0000
  C   C41       1.0  0.19670  0.73777  0.26321  1.0000
  C   C42       1.0  0.16521  0.69851  0.25462  1.0000
  H   H27       1.0  0.21620  0.74974  0.21109  1.0000
  H   H28       1.0  0.16309  0.68347  0.19713  1.0000
  C   C43       1.0  0.32361  0.85501  0.35593  1.0000
  C   C44       1.0  0.29631  0.85600  0.29539  1.0000
  C   C45       1.0  0.25609  0.82568  0.29541  1.0000
  H   H29       1.0  0.30594  0.87782  0.24792  1.0000
  H   H30       1.0  0.23742  0.82623  0.24801  1.0000
  N   N9        1.0  0.36215  0.87988  0.34281  1.0000
  C   C46       1.0  0.73734  0.54016  0.26443  1.0000
  C   C47       1.0  0.69799  0.53218  0.25629  1.0000
  H   H31       1.0  0.74921  0.53253  0.21227  1.0000
  H   H32       1.0  0.68279  0.51901  0.19911  1.0000
  C   C48       1.0  0.85493  0.53097  0.35595  1.0000
  C   C49       1.0  0.85568  0.55905  0.29511  1.0000
  C   C50       1.0  0.82534  0.56892  0.29544  1.0000
  H   H33       1.0  0.87731  0.57106  0.24721  1.0000
  H   H34       1.0  0.82570  0.58796  0.24780  1.0000
  N   N10       1.0  0.87969  0.51718  0.34254  1.0000
  C   C51       1.0  0.45826  0.19668  0.26289  1.0000
  C   C52       1.0  0.46598  0.16515  0.25423  1.0000
  H   H35       1.0  0.46586  0.21621  0.21083  1.0000
  H   H36       1.0  0.47890  0.16304  0.19674  1.0000
  C   C53       1.0  0.46794  0.32356  0.35578  1.0000
  C   C54       1.0  0.43972  0.29632  0.29506  1.0000
  C   C55       1.0  0.42980  0.25609  0.29503  1.0000
  H   H37       1.0  0.42761  0.30600  0.24750  1.0000
  H   H38       1.0  0.41063  0.23746  0.24750  1.0000
  N   N11       1.0  0.48171  0.36213  0.34270  1.0000
  C   C56       1.0  0.80200  0.26169  0.26338  1.0000
  C   C57       1.0  0.83345  0.30100  0.25531  1.0000
  H   H39       1.0  0.78255  0.24987  0.21114  1.0000
  H   H40       1.0  0.83559  0.31621  0.19809  1.0000
  C   C58       1.0  0.67494  0.14439  0.35431  1.0000
  C   C59       1.0  0.70227  0.14354  0.29364  1.0000
  C   C60       1.0  0.74253  0.17377  0.29421  1.0000
  H   H41       1.0  0.69262  0.12194  0.24566  1.0000
  H   H42       1.0  0.76121  0.17335  0.24666  1.0000
  N   N12       1.0  0.63638  0.11981  0.34065  1.0000
  C   C61       1.0  0.04317  0.49401  0.36159  1.0000
  C   C62       1.0  0.08515  0.51573  0.36200  1.0000
  H   H43       1.0  0.02865  0.46557  0.38639  1.0000
  C   C63       1.0  0.91391  0.48384  0.36353  1.0000
  C   C64       1.0  0.95589  0.50554  0.36237  1.0000
  H   H44       1.0  0.97050  0.53403  0.38693  1.0000
  H   H45       1.0  0.83625  0.43369  0.35403  1.0000
  H   H46       1.0  0.16278  0.56594  0.35136  1.0000
  C   C65       1.0  0.89437  0.50248  0.39722  1.0000
  C   C66       1.0  0.10483  0.49718  0.39542  1.0000
  H   H47       1.0  0.88740  0.49930  0.46155  1.0000
  H   H48       1.0  0.11156  0.50005  0.45988  1.0000
  C   C67       1.0  0.50479  0.54867  0.36203  1.0000
  C   C68       1.0  0.48303  0.56889  0.36231  1.0000
  H   H49       1.0  0.53321  0.56261  0.38695  1.0000
  C   C69       1.0  0.51509  0.42965  0.36404  1.0000
  C   C70       1.0  0.49336  0.44989  0.36284  1.0000
  H   H50       1.0  0.46485  0.43598  0.38728  1.0000
  H   H51       1.0  0.56529  0.40218  0.35463  1.0000
  H   H52       1.0  0.43275  0.59622  0.35152  1.0000
  C   C71       1.0  0.49644  0.39144  0.39758  1.0000
  C   C72       1.0  0.50152  0.60711  0.39579  1.0000
  H   H53       1.0  0.49969  0.38751  0.46180  1.0000
  H   H54       1.0  0.49870  0.61101  0.46025  1.0000
  C   C73       1.0  0.44988  0.95591  0.36263  1.0000
  C   C74       1.0  0.42968  0.91394  0.36380  1.0000
  H   H55       1.0  0.43597  0.97048  0.38725  1.0000
  C   C75       1.0  0.56877  0.08531  0.36187  1.0000
  C   C76       1.0  0.54858  0.04333  0.36161  1.0000
  H   H56       1.0  0.56256  0.02888  0.38649  1.0000
  H   H57       1.0  0.59601  0.16291  0.35116  1.0000
  H   H58       1.0  0.40229  0.83630  0.35425  1.0000
  C   C77       1.0  0.60699  0.10507  0.39531  1.0000
  C   C78       1.0  0.39151  0.89435  0.39757  1.0000
  H   H59       1.0  0.61087  0.11159  0.45987  1.0000
  H   H60       1.0  0.38770  0.88693  0.46164  1.0000
  C   C79       1.0  0.32009  0.46110  0.32745  1.0000
  C   C80       1.0  0.29885  0.44608  0.40762  1.0000
  C   C81       1.0  0.25908  0.43775  0.41734  1.0000
  C   C82       1.0  0.24035  0.44534  0.34417  1.0000
  C   C83       1.0  0.20553  0.44858  0.35429  1.0000
  C   C84       1.0  0.20616  0.47661  0.41553  1.0000
  C   C85       1.0  0.17585  0.48638  0.41562  1.0000
  H   H61       1.0  0.23019  0.49237  0.45633  1.0000
  H   H62       1.0  0.17890  0.50891  0.45618  1.0000
  H   H63       1.0  0.31333  0.44310  0.46158  1.0000
  N   N13       1.0  0.24051  0.42363  0.49694  1.0000
  H   H64       1.0  0.25361  0.41822  0.54578  1.0000
  H   H65       1.0  0.21266  0.41552  0.50533  1.0000
  N   N14       1.0  0.35928  0.47648  0.33085  1.0000
  C   C86       1.0  0.53722  0.85840  0.32859  1.0000
  C   C87       1.0  0.55228  0.85215  0.40866  1.0000
  C   C88       1.0  0.56062  0.82071  0.41819  1.0000
  C   C89       1.0  0.55299  0.79442  0.34494  1.0000
  C   C90       1.0  0.54980  0.75637  0.35488  1.0000
  C   C91       1.0  0.52182  0.72892  0.41613  1.0000
  C   C92       1.0  0.51211  0.68886  0.41613  1.0000
  H   H66       1.0  0.50606  0.73715  0.45705  1.0000
  H   H67       1.0  0.48962  0.66934  0.45673  1.0000
  H   H68       1.0  0.55529  0.86959  0.46268  1.0000
  N   N15       1.0  0.57479  0.81623  0.49769  1.0000
  H   H69       1.0  0.58022  0.83472  0.54658  1.0000
  H   H70       1.0  0.58291  0.79648  0.50595  1.0000
  N   N16       1.0  0.52186  0.88223  0.33216  1.0000
  C   C93       1.0  0.14038  0.67873  0.32793  1.0000
  C   C94       1.0  0.14655  0.69988  0.40822  1.0000
  C   C95       1.0  0.17795  0.73965  0.41816  1.0000
  C   C96       1.0  0.20430  0.75848  0.34508  1.0000
  C   C97       1.0  0.24232  0.79332  0.35539  1.0000
  C   C98       1.0  0.26973  0.79265  0.41654  1.0000
  C   C99       1.0  0.30977  0.82306  0.41694  1.0000
  H   H71       1.0  0.26150  0.76855  0.45709  1.0000
  H   H72       1.0  0.32926  0.82002  0.45746  1.0000
  H   H73       1.0  0.12907  0.68533  0.46211  1.0000
  N   N17       1.0  0.18235  0.75812  0.49786  1.0000
  H   H74       1.0  0.16383  0.74496  0.54664  1.0000
  H   H75       1.0  0.20208  0.78598  0.50641  1.0000
  N   N18       1.0  0.11661  0.63955  0.33114  1.0000
  C   C100      1.0  0.67834  0.53731  0.32977  1.0000
  C   C101      1.0  0.69968  0.55255  0.40973  1.0000
  C   C102      1.0  0.73955  0.56115  0.41917  1.0000
  C   C103      1.0  0.75826  0.55355  0.34598  1.0000
  C   C104      1.0  0.79320  0.55050  0.35601  1.0000
  C   C105      1.0  0.79278  0.52265  0.41746  1.0000
  C   C106      1.0  0.82321  0.51305  0.41758  1.0000
  H   H76       1.0  0.76882  0.50689  0.45845  1.0000
  H   H77       1.0  0.82032  0.49064  0.45833  1.0000
  H   H78       1.0  0.68522  0.55551  0.46376  1.0000
  N   N19       1.0  0.75822  0.57549  0.49858  1.0000
  H   H79       1.0  0.74513  0.58089  0.54744  1.0000
  H   H80       1.0  0.78614  0.58378  0.50676  1.0000
  N   N20       1.0  0.63913  0.52160  0.33344  1.0000
  C   C107      1.0  0.46084  0.14025  0.32747  1.0000
  C   C108      1.0  0.44582  0.14639  0.40773  1.0000
  C   C109      1.0  0.43751  0.17783  0.41773  1.0000
  C   C110      1.0  0.44511  0.20424  0.34474  1.0000
  C   C111      1.0  0.44830  0.24227  0.35511  1.0000
  C   C112      1.0  0.47631  0.26963  0.41644  1.0000
  C   C113      1.0  0.48596  0.30967  0.41690  1.0000
  H   H81       1.0  0.49212  0.26136  0.45708  1.0000
  H   H82       1.0  0.50845  0.32914  0.45756  1.0000
  H   H83       1.0  0.44281  0.12886  0.46156  1.0000
  N   N21       1.0  0.42339  0.18219  0.49741  1.0000
  H   H84       1.0  0.41796  0.16362  0.54612  1.0000
  H   H85       1.0  0.41528  0.20193  0.50599  1.0000
  N   N22       1.0  0.47613  0.11637  0.33063  1.0000
  C   C114      1.0  0.85818  0.32060  0.32888  1.0000
  C   C115      1.0  0.85196  0.29925  0.40886  1.0000
  C   C116      1.0  0.82061  0.25942  0.41824  1.0000
  C   C117      1.0  0.79435  0.24076  0.34494  1.0000
  C   C118      1.0  0.75630  0.20589  0.35484  1.0000
  C   C119      1.0  0.72886  0.20640  0.41616  1.0000
  C   C120      1.0  0.68878  0.17608  0.41604  1.0000
  H   H86       1.0  0.73710  0.23035  0.45718  1.0000
  H   H87       1.0  0.66927  0.17904  0.45666  1.0000
  H   H88       1.0  0.86936  0.31367  0.46294  1.0000
  N   N23       1.0  0.81615  0.24073  0.49767  1.0000
  H   H89       1.0  0.83462  0.25378  0.54661  1.0000
  H   H90       1.0  0.79647  0.21283  0.50583  1.0000
  N   N24       1.0  0.88180  0.35980  0.33258  1.0000
