data_image0
_chemical_formula_structural       C2OCH3NC2OCH3NHCHCOCH2N2H2OCH2N2H2NC2NC2OCH3NC2NCNCNCNCNCOCH3CNCOCHC2OCH3NC2NC2OCH3NC2NCNCNCNCNCOCH3CNCOCHC2OCH3NC2OCH3NC2OCH3NC2OCH3CNCNCNCNCNCNCNCOCH3CNCOCH3CNCOCH3NC2OCH3NC2OCH3NC2OCH3CNCNCNCNCNCNCNCOCH3CNCOCH3CNCOCH3
_chemical_formula_sum              "C96 O24 H72 N48"
_cell_length_a       29.1132
_cell_length_b       29.1132
_cell_length_c       14.8427
_cell_angle_alpha    90
_cell_angle_beta     90
_cell_angle_gamma    120

_space_group_name_H-M_alt    "P 1"
_space_group_IT_number       1

loop_
  _space_group_symop_operation_xyz
  'x, y, z'

loop_
  _atom_site_type_symbol
  _atom_site_label
  _atom_site_symmetry_multiplicity
  _atom_site_fract_x
  _atom_site_fract_y
  _atom_site_fract_z
  _atom_site_occupancy
  C   C1        1.0  0.03235  0.31017  0.34261  1.0000
  C   C2        1.0  0.06390  0.28565  0.34484  1.0000
  O   O1        1.0  0.05314  0.36396  0.34168  1.0000
  C   C3        1.0  0.05408  0.38462  0.25326  1.0000
  H   H1        1.0  0.07204  0.42754  0.25863  1.0000
  H   H2        1.0  0.01400  0.36871  0.22623  1.0000
  H   H3        1.0  0.07787  0.37612  0.20647  1.0000
  N   N1        1.0  0.03724  0.23167  0.34724  1.0000
  C   C4        1.0  0.03234  0.81017  0.34260  1.0000
  C   C5        1.0  0.06389  0.78566  0.34484  1.0000
  O   O2        1.0  0.05313  0.86396  0.34164  1.0000
  C   C6        1.0  0.05407  0.88461  0.25321  1.0000
  H   H4        1.0  0.07204  0.92753  0.25857  1.0000
  H   H5        1.0  0.01400  0.86869  0.22618  1.0000
  H   H6        1.0  0.07786  0.87610  0.20643  1.0000
  N   N2        1.0  0.03723  0.73168  0.34725  1.0000
  H   H7        1.0  0.08569  0.14712  0.25878  1.0000
  C   C7        1.0  0.11991  0.31288  0.34482  1.0000
  H   H8        1.0  0.08570  0.64714  0.25868  1.0000
  C   C8        1.0  0.11990  0.81289  0.34482  1.0000
  O   O3        1.0  0.14929  0.19183  0.34177  1.0000
  C   C9        1.0  0.12861  0.17207  0.25338  1.0000
  H   H9        1.0  0.14451  0.14790  0.22636  1.0000
  H   H10       1.0  0.13709  0.20434  0.20655  1.0000
  N   N3        1.0  0.14959  0.36675  0.34490  1.0000
  N   N4        1.0  0.14650  0.28549  0.34490  1.0000
  H   H11       1.0  0.14998  0.06941  0.43393  1.0000
  H   H12       1.0  0.15084  0.01138  0.46616  1.0000
  O   O4        1.0  0.14929  0.69183  0.34170  1.0000
  C   C10       1.0  0.12861  0.67209  0.25329  1.0000
  H   H13       1.0  0.14452  0.64792  0.22627  1.0000
  H   H14       1.0  0.13710  0.70437  0.20649  1.0000
  N   N5        1.0  0.14959  0.86675  0.34489  1.0000
  N   N6        1.0  0.14650  0.78549  0.34488  1.0000
  H   H15       1.0  0.14993  0.56940  0.43372  1.0000
  H   H16       1.0  0.15077  0.51137  0.46598  1.0000
  N   N7        1.0  0.23433  0.20239  0.34454  1.0000
  C   C11       1.0  0.20308  0.22483  0.34265  1.0000
  C   C12       1.0  0.22760  0.28089  0.34484  1.0000
  N   N8        1.0  0.31085  0.03458  0.34432  1.0000
  C   C13       1.0  0.28842  0.48090  0.34249  1.0000
  C   C14       1.0  0.23236  0.44935  0.34482  1.0000
  O   O5        1.0  0.32142  0.46012  0.34137  1.0000
  C   C15       1.0  0.34102  0.45915  0.25286  1.0000
  H   H17       1.0  0.36599  0.44119  0.25809  1.0000
  H   H18       1.0  0.36514  0.49922  0.22577  1.0000
  H   H19       1.0  0.30867  0.43534  0.20619  1.0000
  N   N9        1.0  0.47867  0.27892  0.34447  1.0000
  C   C16       1.0  0.20358  0.39334  0.34480  1.0000
  C   C17       1.0  0.20037  0.30967  0.34481  1.0000
  N   N10       1.0  0.22776  0.36366  0.34487  1.0000
  C   C18       1.0  0.31233  0.11726  0.34694  1.0000
  N   N11       1.0  0.36631  0.14385  0.34682  1.0000
  C   C19       1.0  0.39600  0.19771  0.34690  1.0000
  N   N12       1.0  0.36940  0.22511  0.34684  1.0000
  C   C20       1.0  0.31554  0.20093  0.34695  1.0000
  N   N13       1.0  0.28815  0.14694  0.34688  1.0000
  C   C21       1.0  0.28831  0.22971  0.34691  1.0000
  N   N14       1.0  0.28158  0.30821  0.34721  1.0000
  C   C22       1.0  0.31283  0.28578  0.34907  1.0000
  O   O6        1.0  0.36662  0.31877  0.35001  1.0000
  C   C23       1.0  0.38727  0.33851  0.43842  1.0000
  H   H20       1.0  0.43019  0.36346  0.43306  1.0000
  H   H21       1.0  0.37877  0.30623  0.48524  1.0000
  H   H22       1.0  0.37137  0.36268  0.46543  1.0000
  C   C24       1.0  0.28354  0.06125  0.34690  1.0000
  N   N15       1.0  0.20504  0.47601  0.34734  1.0000
  C   C25       1.0  0.22748  0.02970  0.34925  1.0000
  O   O7        1.0  0.19448  0.05049  0.35049  1.0000
  C   C26       1.0  0.17494  0.05145  0.43906  1.0000
  H   H23       1.0  0.20733  0.07525  0.48568  1.0000
  C   C27       1.0  0.45200  0.22494  0.34686  1.0000
  C   C28       1.0  0.48355  0.20042  0.34907  1.0000
  O   O8        1.0  0.46276  0.14664  0.35006  1.0000
  C   C29       1.0  0.46184  0.12600  0.43849  1.0000
  H   H24       1.0  0.44387  0.08308  0.43316  1.0000
  H   H25       1.0  0.43806  0.13452  0.48528  1.0000
  H   H26       1.0  0.50192  0.14192  0.46550  1.0000
  N   N16       1.0  0.23432  0.70239  0.34449  1.0000
  C   C30       1.0  0.20307  0.72483  0.34260  1.0000
  C   C31       1.0  0.22759  0.78089  0.34480  1.0000
  N   N17       1.0  0.31086  0.53459  0.34438  1.0000
  C   C32       1.0  0.28842  0.98090  0.34242  1.0000
  C   C33       1.0  0.23235  0.94935  0.34480  1.0000
  O   O9        1.0  0.32141  0.96011  0.34124  1.0000
  C   C34       1.0  0.34097  0.95914  0.25268  1.0000
  H   H27       1.0  0.36593  0.94118  0.25785  1.0000
  H   H28       1.0  0.36508  0.99920  0.22558  1.0000
  H   H29       1.0  0.30859  0.93533  0.20606  1.0000
  N   N18       1.0  0.47866  0.77892  0.34446  1.0000
  C   C35       1.0  0.20357  0.89334  0.34478  1.0000
  C   C36       1.0  0.20036  0.80967  0.34477  1.0000
  N   N19       1.0  0.22775  0.86366  0.34483  1.0000
  C   C37       1.0  0.31232  0.61726  0.34693  1.0000
  N   N20       1.0  0.36630  0.64385  0.34683  1.0000
  C   C38       1.0  0.39599  0.69772  0.34690  1.0000
  N   N21       1.0  0.36940  0.72511  0.34682  1.0000
  C   C39       1.0  0.31553  0.70093  0.34692  1.0000
  N   N22       1.0  0.28814  0.64694  0.34686  1.0000
  C   C40       1.0  0.28830  0.72971  0.34687  1.0000
  N   N23       1.0  0.28157  0.80821  0.34718  1.0000
  C   C41       1.0  0.31282  0.78578  0.34904  1.0000
  O   O10       1.0  0.36661  0.81877  0.35000  1.0000
  C   C42       1.0  0.38725  0.83850  0.43842  1.0000
  H   H30       1.0  0.43017  0.86345  0.43307  1.0000
  H   H31       1.0  0.37875  0.80622  0.48523  1.0000
  H   H32       1.0  0.37135  0.86267  0.46543  1.0000
  C   C43       1.0  0.28354  0.56125  0.34690  1.0000
  N   N24       1.0  0.20504  0.97602  0.34737  1.0000
  C   C44       1.0  0.22747  0.52970  0.34920  1.0000
  O   O11       1.0  0.19448  0.55049  0.35037  1.0000
  C   C45       1.0  0.17489  0.55144  0.43890  1.0000
  H   H33       1.0  0.20725  0.57524  0.48557  1.0000
  C   C46       1.0  0.45200  0.72494  0.34687  1.0000
  C   C47       1.0  0.48355  0.70043  0.34909  1.0000
  O   O12       1.0  0.46276  0.64664  0.35011  1.0000
  C   C48       1.0  0.46183  0.62602  0.43855  1.0000
  H   H34       1.0  0.44386  0.58309  0.43324  1.0000
  H   H35       1.0  0.43804  0.63453  0.48532  1.0000
  H   H36       1.0  0.50190  0.64193  0.46558  1.0000
  N   N25       1.0  0.73433  0.20239  0.34454  1.0000
  C   C49       1.0  0.70308  0.22483  0.34265  1.0000
  C   C50       1.0  0.72760  0.28089  0.34484  1.0000
  O   O13       1.0  0.64929  0.19183  0.34177  1.0000
  C   C51       1.0  0.62861  0.17207  0.25338  1.0000
  H   H37       1.0  0.58569  0.14712  0.25878  1.0000
  H   H38       1.0  0.64451  0.14790  0.22636  1.0000
  H   H39       1.0  0.63710  0.20434  0.20655  1.0000
  N   N26       1.0  0.81086  0.03458  0.34432  1.0000
  C   C52       1.0  0.78842  0.48090  0.34249  1.0000
  C   C53       1.0  0.73236  0.44935  0.34482  1.0000
  O   O14       1.0  0.82142  0.46012  0.34137  1.0000
  C   C54       1.0  0.84102  0.45915  0.25286  1.0000
  H   H40       1.0  0.86598  0.44119  0.25809  1.0000
  H   H41       1.0  0.86515  0.49922  0.22577  1.0000
  H   H42       1.0  0.80867  0.43534  0.20619  1.0000
  N   N27       1.0  0.97867  0.27892  0.34447  1.0000
  C   C55       1.0  0.53235  0.31017  0.34261  1.0000
  C   C56       1.0  0.56390  0.28565  0.34484  1.0000
  O   O15       1.0  0.55314  0.36396  0.34168  1.0000
  C   C57       1.0  0.55408  0.38462  0.25326  1.0000
  H   H43       1.0  0.57205  0.42754  0.25863  1.0000
  H   H44       1.0  0.51401  0.36871  0.22623  1.0000
  H   H45       1.0  0.57787  0.37612  0.20647  1.0000
  C   C58       1.0  0.70358  0.39334  0.34480  1.0000
  N   N28       1.0  0.64960  0.36675  0.34490  1.0000
  C   C59       1.0  0.61991  0.31288  0.34482  1.0000
  N   N29       1.0  0.64650  0.28549  0.34490  1.0000
  C   C60       1.0  0.70037  0.30967  0.34481  1.0000
  N   N30       1.0  0.72776  0.36366  0.34487  1.0000
  C   C61       1.0  0.81233  0.11726  0.34694  1.0000
  N   N31       1.0  0.86631  0.14385  0.34682  1.0000
  C   C62       1.0  0.89600  0.19771  0.34690  1.0000
  N   N32       1.0  0.86941  0.22511  0.34684  1.0000
  C   C63       1.0  0.81554  0.20093  0.34695  1.0000
  N   N33       1.0  0.78814  0.14694  0.34688  1.0000
  C   C64       1.0  0.78831  0.22971  0.34691  1.0000
  N   N34       1.0  0.78158  0.30821  0.34721  1.0000
  C   C65       1.0  0.81283  0.28578  0.34907  1.0000
  O   O16       1.0  0.86662  0.31877  0.35001  1.0000
  C   C66       1.0  0.88728  0.33851  0.43842  1.0000
  H   H46       1.0  0.93019  0.36346  0.43306  1.0000
  H   H47       1.0  0.87877  0.30623  0.48524  1.0000
  H   H48       1.0  0.87137  0.36268  0.46543  1.0000
  C   C67       1.0  0.78354  0.06125  0.34690  1.0000
  N   N35       1.0  0.70504  0.47601  0.34734  1.0000
  C   C68       1.0  0.72748  0.02970  0.34925  1.0000
  O   O17       1.0  0.69449  0.05049  0.35049  1.0000
  C   C69       1.0  0.67494  0.05145  0.43906  1.0000
  H   H49       1.0  0.64998  0.06941  0.43393  1.0000
  H   H50       1.0  0.70733  0.07525  0.48568  1.0000
  H   H51       1.0  0.65084  0.01138  0.46616  1.0000
  C   C70       1.0  0.95200  0.22494  0.34686  1.0000
  N   N36       1.0  0.53724  0.23167  0.34724  1.0000
  C   C71       1.0  0.98356  0.20042  0.34907  1.0000
  O   O18       1.0  0.96276  0.14664  0.35006  1.0000
  C   C72       1.0  0.96184  0.12600  0.43849  1.0000
  H   H52       1.0  0.94387  0.08308  0.43316  1.0000
  H   H53       1.0  0.93806  0.13452  0.48528  1.0000
  H   H54       1.0  0.00192  0.14192  0.46550  1.0000
  N   N37       1.0  0.73433  0.70239  0.34449  1.0000
  C   C73       1.0  0.70308  0.72483  0.34260  1.0000
  C   C74       1.0  0.72759  0.78089  0.34480  1.0000
  O   O19       1.0  0.64929  0.69183  0.34170  1.0000
  C   C75       1.0  0.62861  0.67209  0.25329  1.0000
  H   H55       1.0  0.58570  0.64714  0.25868  1.0000
  H   H56       1.0  0.64452  0.64792  0.22627  1.0000
  H   H57       1.0  0.63710  0.70437  0.20649  1.0000
  N   N38       1.0  0.81085  0.53459  0.34438  1.0000
  C   C76       1.0  0.78842  0.98090  0.34242  1.0000
  C   C77       1.0  0.73235  0.94935  0.34480  1.0000
  O   O20       1.0  0.82141  0.96011  0.34124  1.0000
  C   C78       1.0  0.84097  0.95914  0.25268  1.0000
  H   H58       1.0  0.86593  0.94118  0.25785  1.0000
  H   H59       1.0  0.86508  0.99920  0.22558  1.0000
  H   H60       1.0  0.80859  0.93533  0.20606  1.0000
  N   N39       1.0  0.97866  0.77892  0.34446  1.0000
  C   C79       1.0  0.53234  0.81017  0.34260  1.0000
  C   C80       1.0  0.56390  0.78566  0.34484  1.0000
  O   O21       1.0  0.55313  0.86396  0.34164  1.0000
  C   C81       1.0  0.55407  0.88461  0.25321  1.0000
  H   H61       1.0  0.57204  0.92753  0.25857  1.0000
  H   H62       1.0  0.51400  0.86869  0.22618  1.0000
  H   H63       1.0  0.57786  0.87610  0.20643  1.0000
  C   C82       1.0  0.70357  0.89334  0.34478  1.0000
  N   N40       1.0  0.64959  0.86675  0.34489  1.0000
  C   C83       1.0  0.61990  0.81289  0.34482  1.0000
  N   N41       1.0  0.64650  0.78549  0.34488  1.0000
  C   C84       1.0  0.70036  0.80967  0.34477  1.0000
  N   N42       1.0  0.72775  0.86366  0.34483  1.0000
  C   C85       1.0  0.81232  0.61726  0.34693  1.0000
  N   N43       1.0  0.86630  0.64385  0.34683  1.0000
  C   C86       1.0  0.89599  0.69772  0.34690  1.0000
  N   N44       1.0  0.86940  0.72511  0.34682  1.0000
  C   C87       1.0  0.81553  0.70093  0.34692  1.0000
  N   N45       1.0  0.78814  0.64694  0.34686  1.0000
  C   C88       1.0  0.78831  0.72971  0.34687  1.0000
  N   N46       1.0  0.78157  0.80821  0.34718  1.0000
  C   C89       1.0  0.81282  0.78578  0.34904  1.0000
  O   O22       1.0  0.86661  0.81877  0.35000  1.0000
  C   C90       1.0  0.88725  0.83850  0.43842  1.0000
  H   H64       1.0  0.93017  0.86345  0.43307  1.0000
  H   H65       1.0  0.87875  0.80622  0.48523  1.0000
  H   H66       1.0  0.87135  0.86267  0.46543  1.0000
  C   C91       1.0  0.78354  0.56125  0.34690  1.0000
  N   N47       1.0  0.70504  0.97602  0.34737  1.0000
  C   C92       1.0  0.72747  0.52970  0.34920  1.0000
  O   O23       1.0  0.69448  0.55049  0.35037  1.0000
  C   C93       1.0  0.67489  0.55144  0.43890  1.0000
  H   H67       1.0  0.64993  0.56940  0.43372  1.0000
  H   H68       1.0  0.70725  0.57524  0.48557  1.0000
  H   H69       1.0  0.65077  0.51137  0.46598  1.0000
  C   C94       1.0  0.95200  0.72494  0.34687  1.0000
  N   N48       1.0  0.53723  0.73168  0.34725  1.0000
  C   C95       1.0  0.98355  0.70043  0.34909  1.0000
  O   O24       1.0  0.96276  0.64664  0.35011  1.0000
  C   C96       1.0  0.96183  0.62602  0.43855  1.0000
  H   H70       1.0  0.94385  0.58309  0.43324  1.0000
  H   H71       1.0  0.93804  0.63453  0.48532  1.0000
  H   H72       1.0  0.00190  0.64193  0.46558  1.0000
