data_image0
_chemical_formula_structural       C3NC3NC5NC5NC36H26N4C7H3NO2CHC7H3NO2CHC16H16C3H2C2HNO2CHC3H2C2HNO2CH
_chemical_formula_sum              "C96 N12 H58 O8"
_cell_length_a       38.4716
_cell_length_b       38.4696
_cell_length_c       14.9039
_cell_angle_alpha    90
_cell_angle_beta     90
_cell_angle_gamma    90.0595

_space_group_name_H-M_alt    "P 1"
_space_group_IT_number       1

loop_
  _space_group_symop_operation_xyz
  'x, y, z'

loop_
  _atom_site_type_symbol
  _atom_site_label
  _atom_site_symmetry_multiplicity
  _atom_site_fract_x
  _atom_site_fract_y
  _atom_site_fract_z
  _atom_site_occupancy
  C   C1        1.0  0.93705  0.91177  0.31738  1.0000
  C   C2        1.0  0.91127  0.93672  0.31671  1.0000
  C   C3        1.0  0.92705  0.96946  0.31644  1.0000
  N   N1        1.0  0.96174  0.96308  0.31703  1.0000
  C   C4        1.0  0.96926  0.92862  0.31785  1.0000
  C   C5        1.0  0.00211  0.91156  0.31876  1.0000
  C   C6        1.0  0.03477  0.92886  0.31866  1.0000
  N   N2        1.0  0.04096  0.96348  0.31816  1.0000
  C   C7        1.0  0.07535  0.97081  0.31875  1.0000
  C   C8        1.0  0.09234  0.93873  0.31935  1.0000
  C   C9        1.0  0.06737  0.91292  0.31957  1.0000
  C   C10       1.0  0.09157  0.00402  0.31872  1.0000
  C   C11       1.0  0.07345  0.03630  0.31777  1.0000
  N   N3        1.0  0.03876  0.04268  0.31689  1.0000
  C   C12       1.0  0.03123  0.07715  0.31678  1.0000
  C   C13       1.0  0.06343  0.09399  0.31718  1.0000
  C   C14       1.0  0.08922  0.06904  0.31808  1.0000
  C   C15       1.0  0.99837  0.09420  0.31622  1.0000
  C   C16       1.0  0.96571  0.07689  0.31578  1.0000
  N   N4        1.0  0.95953  0.04227  0.31605  1.0000
  C   C17       1.0  0.92513  0.03494  0.31583  1.0000
  C   C18       1.0  0.90813  0.06700  0.31527  1.0000
  C   C19       1.0  0.93310  0.09282  0.31547  1.0000
  C   C20       1.0  0.90892  0.00173  0.31599  1.0000
  C   C21       1.0  0.87179  0.00080  0.31564  1.0000
  C   C22       1.0  0.79730  0.99940  0.31470  1.0000
  C   C23       1.0  0.81667  0.99733  0.23390  1.0000
  C   C24       1.0  0.85327  0.99804  0.23418  1.0000
  C   C25       1.0  0.75996  0.99891  0.31411  1.0000
  C   C26       1.0  0.74117  0.97672  0.25555  1.0000
  C   C27       1.0  0.70455  0.97669  0.25367  1.0000
  C   C28       1.0  0.68542  0.99837  0.31171  1.0000
  C   C29       1.0  0.99806  0.13134  0.31610  1.0000
  C   C30       1.0  0.99711  0.20585  0.31572  1.0000
  C   C31       1.0  0.99452  0.18657  0.23486  1.0000
  C   C32       1.0  0.99500  0.14997  0.23487  1.0000
  C   C33       1.0  0.99666  0.24319  0.31540  1.0000
  C   C34       1.0  0.99617  0.31771  0.31330  1.0000
  C   C35       1.0  0.97403  0.29860  0.25632  1.0000
  C   C36       1.0  0.97402  0.26198  0.25807  1.0000
  C   C37       1.0  0.12870  0.00490  0.32058  1.0000
  C   C38       1.0  0.14799  0.00862  0.24054  1.0000
  C   C39       1.0  0.18459  0.00893  0.24250  1.0000
  C   C40       1.0  0.20314  0.00532  0.32419  1.0000
  C   C41       1.0  0.24042  0.00521  0.32581  1.0000
  C   C42       1.0  0.31507  0.00441  0.32700  1.0000
  C   C43       1.0  0.29655  0.02877  0.27441  1.0000
  C   C44       1.0  0.25993  0.02904  0.27361  1.0000
  C   C45       1.0  0.00237  0.87443  0.32064  1.0000
  C   C46       1.0  0.00572  0.85508  0.24060  1.0000
  C   C47       1.0  0.00240  0.79999  0.32457  1.0000
  C   C48       1.0  0.00581  0.81847  0.24272  1.0000
  C   C49       1.0  0.00229  0.76270  0.32641  1.0000
  C   C50       1.0  0.02592  0.74319  0.27375  1.0000
  C   C51       1.0  0.02566  0.70658  0.27476  1.0000
  C   C52       1.0  0.00150  0.68804  0.32810  1.0000
  H   H1        1.0  0.04353  0.69360  0.23670  1.0000
  H   H2        1.0  0.04413  0.75551  0.23504  1.0000
  H   H3        1.0  0.00768  0.80540  0.18313  1.0000
  H   H4        1.0  0.00796  0.86753  0.18018  1.0000
  H   H5        1.0  0.93253  0.88559  0.31759  1.0000
  H   H6        1.0  0.88524  0.93134  0.31654  1.0000
  H   H7        1.0  0.97909  0.98101  0.31725  1.0000
  H   H8        1.0  0.02141  0.02475  0.31664  1.0000
  H   H9        1.0  0.07257  0.88688  0.32026  1.0000
  H   H10       1.0  0.11854  0.93437  0.31972  1.0000
  H   H11       1.0  0.13549  0.01089  0.18019  1.0000
  H   H12       1.0  0.19762  0.01099  0.18289  1.0000
  H   H13       1.0  0.11524  0.07442  0.31893  1.0000
  H   H14       1.0  0.06795  0.12018  0.31718  1.0000
  H   H15       1.0  0.88192  0.07134  0.31497  1.0000
  H   H16       1.0  0.92788  0.11886  0.31543  1.0000
  H   H17       1.0  0.99320  0.13698  0.17510  1.0000
  H   H18       1.0  0.99290  0.19906  0.17440  1.0000
  H   H19       1.0  0.95693  0.24915  0.21718  1.0000
  H   H20       1.0  0.95746  0.31127  0.21372  1.0000
  H   H21       1.0  0.86633  0.99674  0.17443  1.0000
  H   H22       1.0  0.80426  0.99606  0.17329  1.0000
  H   H23       1.0  0.69190  0.96043  0.21019  1.0000
  H   H24       1.0  0.75400  0.95996  0.21383  1.0000
  H   H25       1.0  0.24762  0.04740  0.23546  1.0000
  H   H26       1.0  0.30953  0.04679  0.23671  1.0000
  N   N5        1.0  0.65088  0.99860  0.30596  1.0000
  N   N6        1.0  0.99975  0.65337  0.33210  1.0000
  N   N7        1.0  0.34974  0.00263  0.33074  1.0000
  N   N8        1.0  0.99651  0.35223  0.30762  1.0000
  C   C53       1.0  0.02082  0.42525  0.30633  1.0000
  C   C54       1.0  0.02277  0.46153  0.29443  1.0000
  C   C55       1.0  0.99676  0.48375  0.32926  1.0000
  C   C56       1.0  0.99883  0.52060  0.31684  1.0000
  C   C57       1.0  0.99848  0.53494  0.22890  1.0000
  C   C58       1.0  0.00143  0.57135  0.21731  1.0000
  C   C59       1.0  0.00456  0.59430  0.29087  1.0000
  H   H27       1.0  0.00122  0.58112  0.15334  1.0000
  H   H28       1.0  0.04040  0.41007  0.28134  1.0000
  H   H29       1.0  0.04366  0.47168  0.26090  1.0000
  N   N9        1.0  0.99460  0.51282  0.15340  1.0000
  O   O1        1.0  0.02016  0.51505  0.10116  1.0000
  O   O2        1.0  0.96740  0.51965  0.11020  1.0000
  C   C60       1.0  0.00881  0.62980  0.27535  1.0000
  H   H30       1.0  0.01831  0.63720  0.21626  1.0000
  C   C61       1.0  0.57787  0.02367  0.30390  1.0000
  C   C62       1.0  0.54160  0.02556  0.29191  1.0000
  C   C63       1.0  0.51933  0.99963  0.32714  1.0000
  C   C64       1.0  0.48248  0.00170  0.31491  1.0000
  C   C65       1.0  0.46806  0.00133  0.22705  1.0000
  C   C66       1.0  0.43165  0.00432  0.21566  1.0000
  C   C67       1.0  0.40878  0.00751  0.28934  1.0000
  H   H31       1.0  0.42182  0.00411  0.15175  1.0000
  H   H32       1.0  0.59309  0.04323  0.27876  1.0000
  H   H33       1.0  0.53148  0.04639  0.25814  1.0000
  N   N10       1.0  0.49008  0.99739  0.15142  1.0000
  O   O3        1.0  0.48790  0.02293  0.09912  1.0000
  O   O4        1.0  0.48313  0.97018  0.10834  1.0000
  C   C68       1.0  0.37329  0.01186  0.27407  1.0000
  H   H34       1.0  0.36587  0.02155  0.21520  1.0000
  C   C69       1.0  0.85288  0.00282  0.39664  1.0000
  C   C70       1.0  0.81627  0.00215  0.39601  1.0000
  C   C71       1.0  0.70376  0.02078  0.37000  1.0000
  C   C72       1.0  0.74038  0.02096  0.37120  1.0000
  C   C73       1.0  0.00067  0.15018  0.39714  1.0000
  C   C74       1.0  0.00025  0.18680  0.39678  1.0000
  C   C75       1.0  0.01916  0.26275  0.37145  1.0000
  C   C76       1.0  0.01899  0.29937  0.37042  1.0000
  C   C77       1.0  0.18347  0.00162  0.40406  1.0000
  C   C78       1.0  0.14686  0.00150  0.40245  1.0000
  C   C79       1.0  0.25918  0.98129  0.37951  1.0000
  C   C80       1.0  0.29581  0.98100  0.38032  1.0000
  C   C81       1.0  0.99909  0.85633  0.40265  1.0000
  C   C82       1.0  0.99904  0.81973  0.40442  1.0000
  C   C83       1.0  0.97832  0.70730  0.38194  1.0000
  C   C84       1.0  0.97860  0.74394  0.38090  1.0000
  H   H35       1.0  0.96057  0.69472  0.42155  1.0000
  H   H36       1.0  0.96069  0.75681  0.41921  1.0000
  H   H37       1.0  0.99711  0.80759  0.46530  1.0000
  H   H38       1.0  0.99674  0.86972  0.46171  1.0000
  H   H39       1.0  0.13353  0.99880  0.46149  1.0000
  H   H40       1.0  0.19566  0.99952  0.46483  1.0000
  H   H41       1.0  0.00275  0.13733  0.45705  1.0000
  H   H42       1.0  0.00158  0.19944  0.45708  1.0000
  H   H43       1.0  0.03604  0.31264  0.41051  1.0000
  H   H44       1.0  0.03665  0.25047  0.41228  1.0000
  H   H45       1.0  0.75264  0.03819  0.41289  1.0000
  H   H46       1.0  0.69052  0.03752  0.41091  1.0000
  H   H47       1.0  0.80357  0.00312  0.45626  1.0000
  H   H48       1.0  0.86565  0.00474  0.45668  1.0000
  H   H49       1.0  0.24631  0.96323  0.41744  1.0000
  H   H50       1.0  0.30840  0.96309  0.41937  1.0000
  C   C85       1.0  0.99288  0.41008  0.35407  1.0000
  C   C86       1.0  0.96876  0.46852  0.37660  1.0000
  C   C87       1.0  0.96699  0.43228  0.38948  1.0000
  H   H51       1.0  0.94937  0.48377  0.40225  1.0000
  H   H52       1.0  0.94648  0.42222  0.42480  1.0000
  C   C88       1.0  0.00455  0.57971  0.37788  1.0000
  C   C89       1.0  0.00178  0.54334  0.39182  1.0000
  H   H53       1.0  0.00734  0.59560  0.43252  1.0000
  N   N11       1.0  0.00305  0.52934  0.47979  1.0000
  O   O5        1.0  0.03129  0.53629  0.51822  1.0000
  O   O6        1.0  0.97849  0.54039  0.52748  1.0000
  C   C90       1.0  0.99161  0.37461  0.37053  1.0000
  H   H54       1.0  0.98585  0.36654  0.43227  1.0000
  C   C91       1.0  0.59297  0.99588  0.35222  1.0000
  C   C92       1.0  0.53452  0.97175  0.37494  1.0000
  C   C93       1.0  0.57075  0.97006  0.38800  1.0000
  H   H55       1.0  0.51923  0.95242  0.40094  1.0000
  H   H56       1.0  0.58077  0.94967  0.42380  1.0000
  C   C94       1.0  0.42344  0.00752  0.37627  1.0000
  C   C95       1.0  0.45981  0.00472  0.39001  1.0000
  H   H57       1.0  0.40761  0.01038  0.43099  1.0000
  N   N12       1.0  0.47388  0.00604  0.47790  1.0000
  O   O7        1.0  0.46705  0.03431  0.51624  1.0000
  O   O8        1.0  0.46279  0.98151  0.52576  1.0000
  C   C96       1.0  0.62839  0.99479  0.36914  1.0000
  H   H58       1.0  0.63632  0.99012  0.43159  1.0000
