data_image0
_chemical_formula_structural       C3OH2C3OH2C3OH2C3HOHC3HOHC3HOHC3HOHC3HOHC3HOHNC18H12NC18H12NC18H12NC18H12NC18H12NC18H12C3HOHC3HOHC3HOHC3OH2C3OH2C3OH2C3OH2C3OH2C3OH2
_chemical_formula_sum              "C162 O18 H108 N6"
_cell_length_a       52.7838
_cell_length_b       52.7838
_cell_length_c       14.938
_cell_angle_alpha    90
_cell_angle_beta     90
_cell_angle_gamma    120

_space_group_name_H-M_alt    "P 1"
_space_group_IT_number       1

loop_
  _space_group_symop_operation_xyz
  'x, y, z'

loop_
  _atom_site_type_symbol
  _atom_site_label
  _atom_site_symmetry_multiplicity
  _atom_site_fract_x
  _atom_site_fract_y
  _atom_site_fract_z
  _atom_site_occupancy
  C   C1        1.0  0.98721  0.49513  0.25833  1.0000
  C   C2        1.0  0.01813  0.51079  0.25532  1.0000
  C   C3        1.0  0.03504  0.51820  0.33522  1.0000
  O   O1        1.0  0.03080  0.52095  0.17375  1.0000
  H   H1        1.0  0.97645  0.48978  0.19842  1.0000
  H   H2        1.0  0.02676  0.50386  0.13697  1.0000
  C   C4        1.0  0.51069  0.49367  0.25904  1.0000
  C   C5        1.0  0.49505  0.50894  0.25570  1.0000
  C   C6        1.0  0.48701  0.51792  0.33547  1.0000
  O   O2        1.0  0.48528  0.51171  0.17376  1.0000
  H   H3        1.0  0.51628  0.48843  0.19925  1.0000
  H   H4        1.0  0.50255  0.52498  0.13795  1.0000
  C   C7        1.0  0.51204  0.01768  0.25845  1.0000
  C   C8        1.0  0.49677  0.98676  0.25558  1.0000
  C   C9        1.0  0.48726  0.96989  0.33554  1.0000
  O   O3        1.0  0.49425  0.97405  0.17407  1.0000
  H   H5        1.0  0.51745  0.02842  0.19851  1.0000
  H   H6        1.0  0.48121  0.97809  0.13722  1.0000
  C   C10       1.0  0.26139  0.54948  0.26440  1.0000
  C   C11       1.0  0.28754  0.54875  0.25341  1.0000
  C   C12       1.0  0.30454  0.54996  0.32877  1.0000
  H   H7        1.0  0.25112  0.55061  0.20777  1.0000
  O   O4        1.0  0.29567  0.54741  0.16779  1.0000
  H   H8        1.0  0.29177  0.52732  0.15886  1.0000
  C   C13       1.0  0.45565  0.71295  0.26528  1.0000
  C   C14       1.0  0.45636  0.73983  0.25442  1.0000
  C   C15       1.0  0.45510  0.75555  0.32985  1.0000
  H   H9        1.0  0.45451  0.70157  0.20859  1.0000
  O   O5        1.0  0.45772  0.74933  0.16884  1.0000
  H   H10       1.0  0.47781  0.76555  0.16001  1.0000
  C   C16       1.0  0.29199  0.74372  0.26509  1.0000
  C   C17       1.0  0.26511  0.71756  0.25403  1.0000
  C   C18       1.0  0.24932  0.70054  0.32934  1.0000
  H   H11       1.0  0.30341  0.75399  0.20849  1.0000
  O   O6        1.0  0.25567  0.70945  0.16838  1.0000
  H   H12       1.0  0.23945  0.71332  0.15944  1.0000
  C   C19       1.0  0.74412  0.45365  0.26046  1.0000
  C   C20       1.0  0.71786  0.45418  0.24936  1.0000
  C   C21       1.0  0.70107  0.45342  0.32473  1.0000
  H   H13       1.0  0.75424  0.45217  0.20396  1.0000
  O   O7        1.0  0.70949  0.45492  0.16360  1.0000
  H   H14       1.0  0.71327  0.47491  0.15339  1.0000
  C   C22       1.0  0.55126  0.29122  0.25955  1.0000
  C   C23       1.0  0.55072  0.26443  0.24846  1.0000
  C   C24       1.0  0.55135  0.24833  0.32385  1.0000
  H   H15       1.0  0.55281  0.30286  0.20307  1.0000
  O   O8        1.0  0.55010  0.25537  0.16270  1.0000
  H   H16       1.0  0.53011  0.23916  0.15225  1.0000
  C   C25       1.0  0.71367  0.26086  0.26026  1.0000
  C   C26       1.0  0.74047  0.28711  0.24925  1.0000
  C   C27       1.0  0.75650  0.30386  0.32468  1.0000
  H   H17       1.0  0.70208  0.25075  0.20373  1.0000
  O   O9        1.0  0.74960  0.29551  0.16353  1.0000
  H   H18       1.0  0.76582  0.29173  0.15331  1.0000
  N   N1        1.0  0.16134  0.58069  0.33910  1.0000
  C   C28       1.0  0.17806  0.61154  0.32323  1.0000
  C   C29       1.0  0.13011  0.56512  0.33828  1.0000
  C   C30       1.0  0.17808  0.56661  0.35551  1.0000
  C   C31       1.0  0.19920  0.57703  0.42462  1.0000
  C   C32       1.0  0.22227  0.57089  0.42415  1.0000
  C   C33       1.0  0.22419  0.55255  0.35823  1.0000
  C   C34       1.0  0.20115  0.53980  0.29483  1.0000
  C   C35       1.0  0.17903  0.54726  0.29207  1.0000
  C   C36       1.0  0.17875  0.63173  0.38662  1.0000
  C   C37       1.0  0.20071  0.66137  0.38412  1.0000
  C   C38       1.0  0.22387  0.67185  0.32105  1.0000
  C   C39       1.0  0.22227  0.65169  0.25535  1.0000
  C   C40       1.0  0.19939  0.62239  0.25474  1.0000
  C   C41       1.0  0.11391  0.56753  0.40957  1.0000
  C   C42       1.0  0.08311  0.55300  0.40711  1.0000
  C   C43       1.0  0.06679  0.53390  0.33592  1.0000
  C   C44       1.0  0.08344  0.53072  0.26673  1.0000
  C   C45       1.0  0.11426  0.54669  0.26623  1.0000
  H   H19       1.0  0.20062  0.67483  0.43322  1.0000
  H   H20       1.0  0.16463  0.62476  0.43935  1.0000
  H   H21       1.0  0.20041  0.60819  0.21028  1.0000
  H   H22       1.0  0.23901  0.65737  0.21102  1.0000
  H   H23       1.0  0.20012  0.59225  0.46882  1.0000
  H   H24       1.0  0.23897  0.58206  0.46854  1.0000
  H   H25       1.0  0.12439  0.58001  0.46412  1.0000
  H   H26       1.0  0.07279  0.55682  0.45881  1.0000
  H   H27       1.0  0.07341  0.51634  0.21550  1.0000
  H   H28       1.0  0.12500  0.54456  0.21261  1.0000
  H   H29       1.0  0.16504  0.54012  0.23905  1.0000
  H   H30       1.0  0.20125  0.52636  0.24569  1.0000
  N   N2        1.0  0.42433  0.58159  0.33903  1.0000
  C   C46       1.0  0.39349  0.56752  0.32303  1.0000
  C   C47       1.0  0.43988  0.56590  0.33816  1.0000
  C   C48       1.0  0.43844  0.61241  0.35558  1.0000
  C   C49       1.0  0.42797  0.62306  0.42469  1.0000
  C   C50       1.0  0.43420  0.65231  0.42472  1.0000
  C   C51       1.0  0.45253  0.67261  0.35890  1.0000
  C   C52       1.0  0.46524  0.66234  0.29528  1.0000
  C   C53       1.0  0.45780  0.63277  0.29230  1.0000
  C   C54       1.0  0.37326  0.54807  0.38640  1.0000
  C   C55       1.0  0.34364  0.54048  0.38384  1.0000
  C   C56       1.0  0.33321  0.55314  0.32058  1.0000
  C   C57       1.0  0.35342  0.57168  0.25491  1.0000
  C   C58       1.0  0.38270  0.57803  0.25444  1.0000
  C   C59       1.0  0.43722  0.54702  0.40896  1.0000
  C   C60       1.0  0.45175  0.53076  0.40649  1.0000
  C   C61       1.0  0.47115  0.53381  0.33591  1.0000
  C   C62       1.0  0.47457  0.55389  0.26723  1.0000
  C   C63       1.0  0.45856  0.56870  0.26661  1.0000
  H   H31       1.0  0.33014  0.52691  0.43281  1.0000
  H   H32       1.0  0.38017  0.54091  0.43924  1.0000
  H   H33       1.0  0.39694  0.59322  0.21000  1.0000
  H   H34       1.0  0.34778  0.58274  0.21048  1.0000
  H   H35       1.0  0.41285  0.60874  0.46912  1.0000
  H   H36       1.0  0.42306  0.65780  0.46929  1.0000
  H   H37       1.0  0.42457  0.54485  0.46323  1.0000
  H   H38       1.0  0.44772  0.51644  0.45780  1.0000
  H   H39       1.0  0.48917  0.55848  0.21651  1.0000
  H   H40       1.0  0.46089  0.58175  0.21329  1.0000
  H   H41       1.0  0.46488  0.62597  0.23901  1.0000
  H   H42       1.0  0.47867  0.67591  0.24618  1.0000
  N   N3        1.0  0.42330  0.84359  0.33999  1.0000
  C   C64       1.0  0.43739  0.82682  0.32412  1.0000
  C   C65       1.0  0.43900  0.87482  0.33901  1.0000
  C   C66       1.0  0.39246  0.82688  0.35623  1.0000
  C   C67       1.0  0.38175  0.80574  0.42526  1.0000
  C   C68       1.0  0.35250  0.78273  0.42489  1.0000
  C   C69       1.0  0.33226  0.78087  0.35904  1.0000
  C   C70       1.0  0.34260  0.80391  0.29560  1.0000
  C   C71       1.0  0.37219  0.82601  0.29284  1.0000
  C   C72       1.0  0.45685  0.82611  0.38756  1.0000
  C   C73       1.0  0.46447  0.80409  0.38504  1.0000
  C   C74       1.0  0.45186  0.78101  0.32172  1.0000
  C   C75       1.0  0.43332  0.78266  0.25600  1.0000
  C   C76       1.0  0.42692  0.80555  0.25548  1.0000
  C   C77       1.0  0.45764  0.89104  0.41023  1.0000
  C   C78       1.0  0.47395  0.92183  0.40764  1.0000
  C   C79       1.0  0.47119  0.93814  0.33636  1.0000
  C   C80       1.0  0.45134  0.92147  0.26722  1.0000
  C   C81       1.0  0.43646  0.89066  0.26687  1.0000
  H   H43       1.0  0.47804  0.80418  0.43404  1.0000
  H   H44       1.0  0.46399  0.84020  0.44035  1.0000
  H   H45       1.0  0.41173  0.80458  0.21098  1.0000
  H   H46       1.0  0.42229  0.76595  0.21154  1.0000
  H   H47       1.0  0.39602  0.80489  0.46978  1.0000
  H   H48       1.0  0.34692  0.76609  0.46953  1.0000
  H   H49       1.0  0.45963  0.88057  0.46483  1.0000
  H   H50       1.0  0.48810  0.93216  0.45930  1.0000
  H   H51       1.0  0.44701  0.93150  0.21593  1.0000
  H   H52       1.0  0.42358  0.87991  0.21327  1.0000
  H   H53       1.0  0.37906  0.83995  0.23971  1.0000
  H   H54       1.0  0.32909  0.80383  0.24639  1.0000
  N   N4        1.0  0.84481  0.42365  0.33672  1.0000
  C   C82       1.0  0.82799  0.39283  0.32008  1.0000
  C   C83       1.0  0.87606  0.43932  0.33749  1.0000
  C   C84       1.0  0.82806  0.43774  0.35277  1.0000
  C   C85       1.0  0.80703  0.42746  0.42211  1.0000
  C   C86       1.0  0.78389  0.43349  0.42139  1.0000
  C   C87       1.0  0.78173  0.45144  0.35460  1.0000
  C   C88       1.0  0.80463  0.46402  0.29072  1.0000
  C   C89       1.0  0.82690  0.45675  0.28846  1.0000
  C   C90       1.0  0.82721  0.37244  0.38285  1.0000
  C   C91       1.0  0.80519  0.34283  0.37969  1.0000
  C   C92       1.0  0.78201  0.33256  0.31677  1.0000
  C   C93       1.0  0.78370  0.35294  0.25166  1.0000
  C   C94       1.0  0.80672  0.38218  0.25139  1.0000
  C   C95       1.0  0.89194  0.43636  0.40874  1.0000
  C   C96       1.0  0.92275  0.45104  0.40790  1.0000
  C   C97       1.0  0.93942  0.47117  0.33935  1.0000
  C   C98       1.0  0.92309  0.47445  0.26921  1.0000
  C   C99       1.0  0.89228  0.45831  0.26693  1.0000
  H   H55       1.0  0.80529  0.32924  0.42828  1.0000
  H   H56       1.0  0.84126  0.37920  0.43567  1.0000
  H   H57       1.0  0.80577  0.39653  0.20743  1.0000
  H   H58       1.0  0.76697  0.34745  0.20748  1.0000
  H   H59       1.0  0.80637  0.41255  0.46718  1.0000
  H   H60       1.0  0.76735  0.42255  0.46644  1.0000
  H   H61       1.0  0.88123  0.42331  0.46204  1.0000
  H   H62       1.0  0.93275  0.44632  0.45840  1.0000
  H   H63       1.0  0.93338  0.48884  0.21807  1.0000
  H   H64       1.0  0.88182  0.46067  0.21295  1.0000
  H   H65       1.0  0.84067  0.46357  0.23490  1.0000
  H   H66       1.0  0.80428  0.47708  0.24074  1.0000
  N   N5        1.0  0.58124  0.42190  0.33638  1.0000
  C   C100      1.0  0.61208  0.43590  0.31992  1.0000
  C   C101      1.0  0.56559  0.43750  0.33759  1.0000
  C   C102      1.0  0.56714  0.39105  0.35223  1.0000
  C   C103      1.0  0.57732  0.38023  0.42159  1.0000
  C   C104      1.0  0.57125  0.35104  0.42074  1.0000
  C   C105      1.0  0.55336  0.33099  0.35375  1.0000
  C   C106      1.0  0.54095  0.34142  0.28964  1.0000
  C   C107      1.0  0.54822  0.37096  0.28761  1.0000
  C   C108      1.0  0.63246  0.45550  0.38275  1.0000
  C   C109      1.0  0.66207  0.46308  0.37970  1.0000
  C   C110      1.0  0.67237  0.45022  0.31671  1.0000
  C   C111      1.0  0.65202  0.43158  0.25149  1.0000
  C   C112      1.0  0.62277  0.42533  0.25117  1.0000
  C   C113      1.0  0.56866  0.45631  0.40903  1.0000
  C   C114      1.0  0.55412  0.47258  0.40846  1.0000
  C   C115      1.0  0.53399  0.46927  0.34010  1.0000
  C   C116      1.0  0.53054  0.44961  0.26987  1.0000
  C   C117      1.0  0.54655  0.43481  0.26728  1.0000
  H   H67       1.0  0.67563  0.47675  0.42838  1.0000
  H   H68       1.0  0.62569  0.46270  0.43577  1.0000
  H   H69       1.0  0.60844  0.41006  0.20712  1.0000
  H   H70       1.0  0.65752  0.42036  0.20726  1.0000
  H   H71       1.0  0.59218  0.39442  0.46686  1.0000
  H   H72       1.0  0.58211  0.34538  0.46592  1.0000
  H   H73       1.0  0.58172  0.45858  0.46222  1.0000
  H   H74       1.0  0.55899  0.48732  0.45894  1.0000
  H   H75       1.0  0.51613  0.44562  0.21886  1.0000
  H   H76       1.0  0.54409  0.42199  0.21321  1.0000
  H   H77       1.0  0.54150  0.37799  0.23398  1.0000
  H   H78       1.0  0.52793  0.32806  0.23950  1.0000
  N   N6        1.0  0.58297  0.16012  0.33623  1.0000
  C   C118      1.0  0.56894  0.17692  0.31943  1.0000
  C   C119      1.0  0.56740  0.12887  0.33715  1.0000
  C   C120      1.0  0.61380  0.17689  0.35235  1.0000
  C   C121      1.0  0.62451  0.19791  0.42172  1.0000
  C   C122      1.0  0.65368  0.22107  0.42099  1.0000
  C   C123      1.0  0.67382  0.22323  0.35427  1.0000
  C   C124      1.0  0.66349  0.20035  0.29031  1.0000
  C   C125      1.0  0.63398  0.17804  0.28812  1.0000
  C   C126      1.0  0.54921  0.17761  0.38190  1.0000
  C   C127      1.0  0.54160  0.19962  0.37868  1.0000
  C   C128      1.0  0.55458  0.22284  0.31590  1.0000
  C   C129      1.0  0.57332  0.22119  0.25096  1.0000
  C   C130      1.0  0.57960  0.19821  0.25080  1.0000
  C   C131      1.0  0.54858  0.11302  0.40847  1.0000
  C   C132      1.0  0.53244  0.08221  0.40775  1.0000
  C   C133      1.0  0.53588  0.06550  0.33928  1.0000
  C   C134      1.0  0.55550  0.08181  0.26908  1.0000
  C   C135      1.0  0.57017  0.11262  0.26667  1.0000
  H   H79       1.0  0.52786  0.19949  0.42716  1.0000
  H   H80       1.0  0.54193  0.16359  0.43480  1.0000
  H   H81       1.0  0.59496  0.19921  0.20701  1.0000
  H   H82       1.0  0.58461  0.23797  0.20693  1.0000
  H   H83       1.0  0.61022  0.19857  0.46658  1.0000
  H   H84       1.0  0.65928  0.23761  0.46603  1.0000
  H   H85       1.0  0.54624  0.12375  0.46172  1.0000
  H   H86       1.0  0.51774  0.07224  0.45830  1.0000
  H   H87       1.0  0.55959  0.07150  0.21801  1.0000
  H   H88       1.0  0.58298  0.12306  0.21266  1.0000
  H   H89       1.0  0.62701  0.16426  0.23456  1.0000
  H   H90       1.0  0.67694  0.20067  0.24049  1.0000
  C   C136      1.0  0.01902  0.50958  0.41655  1.0000
  C   C137      1.0  0.98820  0.49544  0.41950  1.0000
  C   C138      1.0  0.97118  0.48691  0.33966  1.0000
  H   H91       1.0  0.02979  0.51390  0.47638  1.0000
  O   O10       1.0  0.97623  0.49151  0.50266  1.0000
  H   H92       1.0  0.97093  0.50678  0.51035  1.0000
  C   C139      1.0  0.49517  0.51012  0.41694  1.0000
  C   C140      1.0  0.50997  0.49402  0.42030  1.0000
  C   C141      1.0  0.51848  0.48552  0.34052  1.0000
  H   H93       1.0  0.49026  0.51604  0.47672  1.0000
  O   O11       1.0  0.51277  0.48435  0.50238  1.0000
  H   H94       1.0  0.52630  0.50164  0.53769  1.0000
  C   C142      1.0  0.49468  0.98594  0.41680  1.0000
  C   C143      1.0  0.51138  0.01677  0.41963  1.0000
  C   C144      1.0  0.51986  0.03375  0.33972  1.0000
  H   H95       1.0  0.48823  0.97520  0.47667  1.0000
  O   O12       1.0  0.51942  0.02876  0.50274  1.0000
  H   H96       1.0  0.53999  0.03406  0.51044  1.0000
  C   C145      1.0  0.29272  0.54957  0.41440  1.0000
  C   C146      1.0  0.26569  0.54854  0.42538  1.0000
  C   C147      1.0  0.24985  0.54966  0.35003  1.0000
  O   O13       1.0  0.25616  0.54704  0.51098  1.0000
  H   H97       1.0  0.30414  0.55075  0.47103  1.0000
  H   H98       1.0  0.24011  0.52686  0.51977  1.0000
  C   C148      1.0  0.45548  0.74409  0.41542  1.0000
  C   C149      1.0  0.45651  0.71808  0.42627  1.0000
  C   C150      1.0  0.45542  0.70117  0.35085  1.0000
  O   O14       1.0  0.45798  0.71001  0.51185  1.0000
  H   H99       1.0  0.45426  0.75429  0.47210  1.0000
  H   H100      1.0  0.47816  0.71413  0.52068  1.0000
  C   C151      1.0  0.26071  0.71235  0.41500  1.0000
  C   C152      1.0  0.28671  0.73938  0.42605  1.0000
  C   C153      1.0  0.30369  0.75523  0.35076  1.0000
  O   O15       1.0  0.29471  0.74890  0.51169  1.0000
  H   H101      1.0  0.25046  0.70091  0.47160  1.0000
  H   H102      1.0  0.29062  0.76497  0.52046  1.0000
  C   C154      1.0  0.71319  0.45442  0.41033  1.0000
  C   C155      1.0  0.74031  0.45565  0.42131  1.0000
  C   C156      1.0  0.75596  0.45412  0.34610  1.0000
  O   O16       1.0  0.75016  0.45780  0.50681  1.0000
  H   H103      1.0  0.70194  0.45354  0.46704  1.0000
  H   H104      1.0  0.76610  0.47809  0.51436  1.0000
  C   C157      1.0  0.55023  0.25939  0.40942  1.0000
  C   C158      1.0  0.54899  0.28528  0.42038  1.0000
  C   C159      1.0  0.55067  0.30254  0.34518  1.0000
  O   O17       1.0  0.54670  0.29292  0.50582  1.0000
  H   H105      1.0  0.55099  0.24897  0.46616  1.0000
  H   H106      1.0  0.52640  0.28859  0.51305  1.0000
  C   C160      1.0  0.74536  0.29172  0.41024  1.0000
  C   C161      1.0  0.71944  0.26461  0.42113  1.0000
  C   C162      1.0  0.70228  0.24899  0.34587  1.0000
  O   O18       1.0  0.71171  0.25473  0.50659  1.0000
  H   H107      1.0  0.75573  0.30295  0.46698  1.0000
  H   H108      1.0  0.71605  0.23878  0.51412  1.0000
