data_image0
_chemical_formula_structural       C3OH3C3HCHC4OH3C3HCHC3HC2H2C3HCH2C3HCH2C2HC2H2C3HCH2C3HCH2C2OHOH2CHC3H4C2OHOH2CHC3H4C3OHC4OHC6OHC2H2C2H2C2H2C2H2C3H2C3HC2HC3H2C4HCH2C4HCH3C4HCH3C4HCH3C3OHC4OHC6OHC2H2C2H2C2H2C2H2C3H2C3HC2HC3H2C4HCH2C4HCH3C4HCH3C4HCH3C6O2H2C6O2H2C6O2H2C2H2C2H2C2H2C2H2C2H2C2H2C3H2C3H2C3H2C3H2C3H2C3H2C4HCH3C4HCH3C4HCH3C4HCH3C4HCH3C4HCH3C6O2H2C6O2H2C6O2H2C2H2C2H2C2H2C2H2C2H2C2H2C3H2C3H2C3H2C3H2C3H2C3H2C4HCH3C4HCH3C4HCH3C4HCH3C4HCH3C4HCH3
_chemical_formula_sum              "C312 O24 H216"
_cell_length_a       46.5673
_cell_length_b       46.5673
_cell_length_c       14.8549
_cell_angle_alpha    90
_cell_angle_beta     90
_cell_angle_gamma    120

_space_group_name_H-M_alt    "P 1"
_space_group_IT_number       1

loop_
  _space_group_symop_operation_xyz
  'x, y, z'

loop_
  _atom_site_type_symbol
  _atom_site_label
  _atom_site_symmetry_multiplicity
  _atom_site_fract_x
  _atom_site_fract_y
  _atom_site_fract_z
  _atom_site_occupancy
  C   C1        1.0  0.02543  0.26401  0.31728  1.0000
  C   C2        1.0  0.04551  0.29973  0.31177  1.0000
  C   C3        1.0  0.07918  0.31725  0.34057  1.0000
  O   O1        1.0  0.03396  0.31941  0.27954  1.0000
  H   H1        1.0  0.02993  0.31455  0.21486  1.0000
  H   H2        1.0  0.09684  0.23960  0.21927  1.0000
  H   H3        1.0  0.10194  0.36360  0.21125  1.0000
  C   C4        1.0  0.09487  0.29876  0.35924  1.0000
  C   C5        1.0  0.07838  0.26408  0.35145  1.0000
  C   C6        1.0  0.04405  0.24748  0.33248  1.0000
  H   H4        1.0  0.03264  0.22252  0.33977  1.0000
  C   C7        1.0  0.09773  0.24838  0.35977  1.0000
  H   H5        1.0  0.08066  0.23962  0.54136  1.0000
  C   C8        1.0  0.09929  0.35225  0.35001  1.0000
  C   C9        1.0  0.02543  0.76401  0.31728  1.0000
  C   C10       1.0  0.04551  0.79973  0.31177  1.0000
  C   C11       1.0  0.07918  0.81725  0.34057  1.0000
  O   O2        1.0  0.03396  0.81941  0.27954  1.0000
  H   H6        1.0  0.02993  0.81455  0.21486  1.0000
  H   H7        1.0  0.09684  0.73960  0.21927  1.0000
  H   H8        1.0  0.10194  0.86360  0.21125  1.0000
  C   C12       1.0  0.09487  0.79876  0.35924  1.0000
  C   C13       1.0  0.07838  0.76408  0.35145  1.0000
  C   C14       1.0  0.04405  0.74748  0.33248  1.0000
  H   H9        1.0  0.03264  0.72252  0.33977  1.0000
  C   C15       1.0  0.09773  0.74838  0.35977  1.0000
  H   H10       1.0  0.08066  0.73962  0.54136  1.0000
  C   C16       1.0  0.09929  0.85225  0.35001  1.0000
  C   C17       1.0  0.10858  0.24073  0.27863  1.0000
  C   C18       1.0  0.13911  0.24116  0.27357  1.0000
  H   H11       1.0  0.14814  0.24041  0.21130  1.0000
  C   C19       1.0  0.14185  0.40338  0.27772  1.0000
  C   C20       1.0  0.11167  0.37290  0.27336  1.0000
  H   H12       1.0  0.15239  0.41493  0.21810  1.0000
  H   H13       1.0  0.11990  0.31116  0.37229  1.0000
  C   C21       1.0  0.15993  0.24941  0.34976  1.0000
  C   C22       1.0  0.14740  0.25355  0.43268  1.0000
  C   C23       1.0  0.11696  0.25328  0.43898  1.0000
  H   H14       1.0  0.16239  0.26014  0.48834  1.0000
  C   C24       1.0  0.10610  0.25913  0.52819  1.0000
  H   H15       1.0  0.12148  0.25890  0.58344  1.0000
  H   H16       1.0  0.10715  0.28303  0.52945  1.0000
  C   C25       1.0  0.11610  0.36507  0.43261  1.0000
  C   C26       1.0  0.14621  0.39559  0.43834  1.0000
  C   C27       1.0  0.16035  0.41460  0.35880  1.0000
  H   H17       1.0  0.10779  0.35021  0.48856  1.0000
  C   C28       1.0  0.16313  0.40669  0.52720  1.0000
  H   H18       1.0  0.14772  0.39135  0.58278  1.0000
  H   H19       1.0  0.16894  0.43211  0.54013  1.0000
  C   C29       1.0  0.10858  0.74074  0.27863  1.0000
  C   C30       1.0  0.13911  0.74116  0.27357  1.0000
  H   H20       1.0  0.14814  0.74041  0.21130  1.0000
  C   C31       1.0  0.14185  0.90338  0.27772  1.0000
  C   C32       1.0  0.11167  0.87290  0.27336  1.0000
  H   H21       1.0  0.15239  0.91493  0.21810  1.0000
  H   H22       1.0  0.11990  0.81116  0.37229  1.0000
  C   C33       1.0  0.15994  0.74941  0.34976  1.0000
  C   C34       1.0  0.14740  0.75355  0.43268  1.0000
  C   C35       1.0  0.11696  0.75328  0.43898  1.0000
  H   H23       1.0  0.16239  0.76014  0.48834  1.0000
  C   C36       1.0  0.10610  0.75913  0.52819  1.0000
  H   H24       1.0  0.12148  0.75890  0.58344  1.0000
  H   H25       1.0  0.10716  0.78303  0.52945  1.0000
  C   C37       1.0  0.11611  0.86507  0.43261  1.0000
  C   C38       1.0  0.14621  0.89559  0.43834  1.0000
  C   C39       1.0  0.16035  0.91460  0.35880  1.0000
  H   H26       1.0  0.10779  0.85021  0.48856  1.0000
  C   C40       1.0  0.16313  0.90669  0.52720  1.0000
  H   H27       1.0  0.14773  0.89136  0.58278  1.0000
  H   H28       1.0  0.16894  0.93211  0.54013  1.0000
  C   C41       1.0  0.21244  0.24814  0.31157  1.0000
  C   C42       1.0  0.19493  0.26435  0.33990  1.0000
  O   O3        1.0  0.19273  0.21687  0.27960  1.0000
  H   H29       1.0  0.19757  0.21763  0.21491  1.0000
  O   O4        1.0  0.21944  0.03155  0.27962  1.0000
  H   H30       1.0  0.22025  0.02753  0.21492  1.0000
  H   H31       1.0  0.22490  0.19721  0.34006  1.0000
  C   C43       1.0  0.21341  0.29858  0.35800  1.0000
  H   H32       1.0  0.20102  0.31123  0.37075  1.0000
  C   C44       1.0  0.21348  0.41721  0.35668  1.0000
  C   C45       1.0  0.19539  0.43382  0.34959  1.0000
  C   C46       1.0  0.21323  0.46825  0.33211  1.0000
  H   H33       1.0  0.20081  0.39216  0.36936  1.0000
  H   H34       1.0  0.19976  0.47972  0.34025  1.0000
  H   H35       1.0  0.22943  0.32663  0.52842  1.0000
  H   H36       1.0  0.18607  0.40581  0.52804  1.0000
  C   C47       1.0  0.21244  0.74814  0.31157  1.0000
  C   C48       1.0  0.19493  0.76435  0.33990  1.0000
  O   O5        1.0  0.19273  0.71687  0.27960  1.0000
  H   H37       1.0  0.19757  0.71764  0.21491  1.0000
  O   O6        1.0  0.21944  0.53156  0.27962  1.0000
  H   H38       1.0  0.22025  0.52753  0.21492  1.0000
  H   H39       1.0  0.22490  0.69721  0.34006  1.0000
  C   C49       1.0  0.21342  0.79858  0.35800  1.0000
  H   H40       1.0  0.20102  0.81123  0.37075  1.0000
  C   C50       1.0  0.21348  0.91721  0.35668  1.0000
  C   C51       1.0  0.19539  0.93381  0.34959  1.0000
  C   C52       1.0  0.21324  0.96825  0.33211  1.0000
  H   H41       1.0  0.20081  0.89216  0.36936  1.0000
  H   H42       1.0  0.19976  0.97972  0.34025  1.0000
  H   H43       1.0  0.22943  0.82663  0.52842  1.0000
  H   H44       1.0  0.18607  0.90581  0.52804  1.0000
  C   C53       1.0  0.48929  0.24575  0.31711  1.0000
  C   C54       1.0  0.43548  0.19249  0.33955  1.0000
  C   C55       1.0  0.46922  0.21003  0.31139  1.0000
  O   O7        1.0  0.48081  0.19036  0.27933  1.0000
  H   H45       1.0  0.48487  0.19521  0.21464  1.0000
  C   C56       1.0  0.26640  0.24588  0.31718  1.0000
  C   C57       1.0  0.31963  0.24530  0.33997  1.0000
  C   C58       1.0  0.30211  0.26148  0.31147  1.0000
  C   C59       1.0  0.24816  0.26377  0.31718  1.0000
  O   O8        1.0  0.32181  0.29273  0.27934  1.0000
  H   H46       1.0  0.31695  0.29193  0.21466  1.0000
  C   C60       1.0  0.26630  0.02299  0.31728  1.0000
  C   C61       1.0  0.26688  0.07679  0.34037  1.0000
  C   C62       1.0  0.25068  0.04310  0.31177  1.0000
  C   C63       1.0  0.24838  0.48685  0.31693  1.0000
  C   C64       1.0  0.26399  0.46675  0.31101  1.0000
  C   C65       1.0  0.24772  0.43296  0.33876  1.0000
  O   O9        1.0  0.29528  0.47834  0.27921  1.0000
  H   H47       1.0  0.29457  0.48247  0.21454  1.0000
  C   C66       1.0  0.27120  0.37016  0.27740  1.0000
  C   C67       1.0  0.27081  0.40029  0.27227  1.0000
  H   H48       1.0  0.27217  0.35944  0.21808  1.0000
  H   H49       1.0  0.27131  0.40987  0.20988  1.0000
  C   C68       1.0  0.40600  0.26903  0.27808  1.0000
  C   C69       1.0  0.37546  0.26861  0.27338  1.0000
  H   H50       1.0  0.41770  0.27015  0.21866  1.0000
  H   H51       1.0  0.36635  0.26929  0.21120  1.0000
  C   C70       1.0  0.24322  0.13945  0.27839  1.0000
  C   C71       1.0  0.24382  0.10943  0.27368  1.0000
  H   H52       1.0  0.24234  0.15011  0.21887  1.0000
  H   H53       1.0  0.24325  0.09971  0.21143  1.0000
  C   C72       1.0  0.37259  0.10621  0.27804  1.0000
  C   C73       1.0  0.40273  0.13671  0.27293  1.0000
  H   H54       1.0  0.36189  0.09453  0.21869  1.0000
  H   H55       1.0  0.41238  0.14584  0.21063  1.0000
  C   C74       1.0  0.47065  0.26225  0.33227  1.0000
  C   C75       1.0  0.43625  0.24564  0.35040  1.0000
  C   C76       1.0  0.41973  0.21095  0.35784  1.0000
  H   H56       1.0  0.48206  0.28722  0.33968  1.0000
  H   H57       1.0  0.39467  0.19853  0.37042  1.0000
  C   C77       1.0  0.24985  0.21073  0.33238  1.0000
  C   C78       1.0  0.26645  0.19294  0.35071  1.0000
  C   C79       1.0  0.30113  0.21109  0.35841  1.0000
  H   H58       1.0  0.31350  0.19843  0.37129  1.0000
  C   C80       1.0  0.24809  0.31673  0.35020  1.0000
  C   C81       1.0  0.26469  0.29893  0.33223  1.0000
  H   H59       1.0  0.28966  0.31248  0.33938  1.0000
  C   C82       1.0  0.30144  0.04160  0.33248  1.0000
  C   C83       1.0  0.31923  0.07596  0.35098  1.0000
  C   C84       1.0  0.30107  0.09248  0.35894  1.0000
  H   H60       1.0  0.31499  0.03017  0.33962  1.0000
  H   H61       1.0  0.31372  0.11751  0.37180  1.0000
  C   C85       1.0  0.26266  0.41292  0.34853  1.0000
  C   C86       1.0  0.25861  0.39630  0.43145  1.0000
  C   C87       1.0  0.25902  0.36620  0.43785  1.0000
  C   C88       1.0  0.26384  0.35178  0.35876  1.0000
  H   H62       1.0  0.25215  0.40478  0.48722  1.0000
  C   C89       1.0  0.25327  0.34954  0.52710  1.0000
  H   H63       1.0  0.25343  0.36512  0.58231  1.0000
  H   H64       1.0  0.27287  0.34374  0.54027  1.0000
  C   C90       1.0  0.35462  0.26021  0.34960  1.0000
  C   C91       1.0  0.36728  0.25606  0.43231  1.0000
  C   C92       1.0  0.39775  0.25639  0.43836  1.0000
  C   C93       1.0  0.41693  0.26137  0.35903  1.0000
  H   H65       1.0  0.35233  0.24942  0.48808  1.0000
  C   C94       1.0  0.40868  0.25049  0.52741  1.0000
  H   H66       1.0  0.39332  0.25065  0.58280  1.0000
  H   H67       1.0  0.43412  0.27001  0.54056  1.0000
  H   H68       1.0  0.40766  0.22660  0.52842  1.0000
  C   C95       1.0  0.25196  0.09686  0.35013  1.0000
  C   C96       1.0  0.25596  0.11357  0.43287  1.0000
  C   C97       1.0  0.25553  0.14366  0.43899  1.0000
  C   C98       1.0  0.25066  0.15789  0.35963  1.0000
  H   H69       1.0  0.26243  0.10516  0.48876  1.0000
  C   C99       1.0  0.26129  0.16044  0.52805  1.0000
  H   H70       1.0  0.26117  0.14494  0.58344  1.0000
  H   H71       1.0  0.24167  0.16624  0.54105  1.0000
  H   H72       1.0  0.28511  0.18338  0.52917  1.0000
  C   C100      1.0  0.41545  0.15749  0.34919  1.0000
  C   C101      1.0  0.39882  0.14490  0.43217  1.0000
  C   C102      1.0  0.36868  0.11444  0.43863  1.0000
  C   C103      1.0  0.35430  0.09525  0.35948  1.0000
  H   H73       1.0  0.40733  0.15986  0.48789  1.0000
  C   C104      1.0  0.35203  0.10356  0.52789  1.0000
  H   H74       1.0  0.36763  0.11897  0.58308  1.0000
  H   H75       1.0  0.34617  0.07814  0.54104  1.0000
  H   H76       1.0  0.32913  0.10453  0.52924  1.0000
  C   C105      1.0  0.48929  0.74575  0.31711  1.0000
  C   C106      1.0  0.43548  0.69249  0.33955  1.0000
  C   C107      1.0  0.46922  0.71003  0.31139  1.0000
  O   O10       1.0  0.48081  0.69036  0.27933  1.0000
  H   H77       1.0  0.48487  0.69521  0.21464  1.0000
  C   C108      1.0  0.26640  0.74588  0.31718  1.0000
  C   C109      1.0  0.31963  0.74530  0.33997  1.0000
  C   C110      1.0  0.30211  0.76148  0.31147  1.0000
  C   C111      1.0  0.24816  0.76377  0.31718  1.0000
  O   O11       1.0  0.32181  0.79273  0.27934  1.0000
  H   H78       1.0  0.31695  0.79193  0.21466  1.0000
  C   C112      1.0  0.26630  0.52299  0.31728  1.0000
  C   C113      1.0  0.26688  0.57679  0.34037  1.0000
  C   C114      1.0  0.25068  0.54310  0.31177  1.0000
  C   C115      1.0  0.24839  0.98686  0.31693  1.0000
  C   C116      1.0  0.26399  0.96675  0.31101  1.0000
  C   C117      1.0  0.24772  0.93297  0.33876  1.0000
  O   O12       1.0  0.29529  0.97835  0.27921  1.0000
  H   H79       1.0  0.29457  0.98247  0.21454  1.0000
  C   C118      1.0  0.27120  0.87016  0.27740  1.0000
  C   C119      1.0  0.27081  0.90029  0.27227  1.0000
  H   H80       1.0  0.27217  0.85944  0.21808  1.0000
  H   H81       1.0  0.27131  0.90987  0.20988  1.0000
  C   C120      1.0  0.40600  0.76903  0.27808  1.0000
  C   C121      1.0  0.37546  0.76861  0.27338  1.0000
  H   H82       1.0  0.41770  0.77015  0.21866  1.0000
  H   H83       1.0  0.36635  0.76929  0.21120  1.0000
  C   C122      1.0  0.24322  0.63945  0.27839  1.0000
  C   C123      1.0  0.24383  0.60943  0.27368  1.0000
  H   H84       1.0  0.24234  0.65011  0.21887  1.0000
  H   H85       1.0  0.24325  0.59972  0.21143  1.0000
  C   C124      1.0  0.37259  0.60621  0.27804  1.0000
  C   C125      1.0  0.40273  0.63671  0.27293  1.0000
  H   H86       1.0  0.36189  0.59453  0.21869  1.0000
  H   H87       1.0  0.41238  0.64584  0.21063  1.0000
  C   C126      1.0  0.47065  0.76225  0.33227  1.0000
  C   C127      1.0  0.43626  0.74564  0.35040  1.0000
  C   C128      1.0  0.41973  0.71095  0.35784  1.0000
  H   H88       1.0  0.48206  0.78722  0.33968  1.0000
  H   H89       1.0  0.39467  0.69853  0.37042  1.0000
  C   C129      1.0  0.24985  0.71073  0.33238  1.0000
  C   C130      1.0  0.26645  0.69294  0.35071  1.0000
  C   C131      1.0  0.30113  0.71109  0.35841  1.0000
  H   H90       1.0  0.31350  0.69843  0.37129  1.0000
  C   C132      1.0  0.24809  0.81673  0.35020  1.0000
  C   C133      1.0  0.26469  0.79893  0.33223  1.0000
  H   H91       1.0  0.28966  0.81248  0.33938  1.0000
  C   C134      1.0  0.30144  0.54160  0.33248  1.0000
  C   C135      1.0  0.31923  0.57596  0.35098  1.0000
  C   C136      1.0  0.30107  0.59247  0.35894  1.0000
  H   H92       1.0  0.31499  0.53017  0.33962  1.0000
  H   H93       1.0  0.31372  0.61752  0.37180  1.0000
  C   C137      1.0  0.26266  0.91292  0.34853  1.0000
  C   C138      1.0  0.25861  0.89630  0.43145  1.0000
  C   C139      1.0  0.25902  0.86620  0.43785  1.0000
  C   C140      1.0  0.26384  0.85178  0.35876  1.0000
  H   H94       1.0  0.25215  0.90478  0.48722  1.0000
  C   C141      1.0  0.25327  0.84954  0.52710  1.0000
  H   H95       1.0  0.25343  0.86513  0.58231  1.0000
  H   H96       1.0  0.27287  0.84374  0.54027  1.0000
  C   C142      1.0  0.35462  0.76022  0.34960  1.0000
  C   C143      1.0  0.36728  0.75606  0.43231  1.0000
  C   C144      1.0  0.39776  0.75640  0.43836  1.0000
  C   C145      1.0  0.41693  0.76137  0.35903  1.0000
  H   H97       1.0  0.35233  0.74942  0.48808  1.0000
  C   C146      1.0  0.40868  0.75049  0.52741  1.0000
  H   H98       1.0  0.39332  0.75065  0.58280  1.0000
  H   H99       1.0  0.43412  0.77001  0.54056  1.0000
  H   H100      1.0  0.40766  0.72660  0.52842  1.0000
  C   C147      1.0  0.25196  0.59686  0.35013  1.0000
  C   C148      1.0  0.25596  0.61357  0.43287  1.0000
  C   C149      1.0  0.25553  0.64366  0.43899  1.0000
  C   C150      1.0  0.25066  0.65789  0.35963  1.0000
  H   H101      1.0  0.26243  0.60516  0.48876  1.0000
  C   C151      1.0  0.26129  0.66044  0.52805  1.0000
  H   H102      1.0  0.26117  0.64494  0.58344  1.0000
  H   H103      1.0  0.24167  0.66624  0.54105  1.0000
  H   H104      1.0  0.28512  0.68338  0.52917  1.0000
  C   C152      1.0  0.41545  0.65749  0.34919  1.0000
  C   C153      1.0  0.39882  0.64490  0.43217  1.0000
  C   C154      1.0  0.36868  0.61445  0.43863  1.0000
  C   C155      1.0  0.35430  0.59525  0.35948  1.0000
  H   H105      1.0  0.40733  0.65986  0.48789  1.0000
  C   C156      1.0  0.35203  0.60356  0.52789  1.0000
  H   H106      1.0  0.36763  0.61897  0.58308  1.0000
  H   H107      1.0  0.34617  0.57814  0.54104  1.0000
  H   H108      1.0  0.32913  0.60453  0.52924  1.0000
  C   C157      1.0  0.98929  0.24575  0.31711  1.0000
  C   C158      1.0  0.93548  0.19249  0.33955  1.0000
  C   C159      1.0  0.96922  0.21003  0.31139  1.0000
  C   C160      1.0  0.52543  0.26401  0.31728  1.0000
  C   C161      1.0  0.54551  0.29973  0.31177  1.0000
  C   C162      1.0  0.57918  0.31725  0.34057  1.0000
  O   O13       1.0  0.98081  0.19036  0.27933  1.0000
  O   O14       1.0  0.53396  0.31941  0.27954  1.0000
  H   H109      1.0  0.98487  0.19521  0.21464  1.0000
  H   H110      1.0  0.52992  0.31455  0.21486  1.0000
  C   C163      1.0  0.76640  0.24588  0.31718  1.0000
  C   C164      1.0  0.81963  0.24530  0.33997  1.0000
  C   C165      1.0  0.80211  0.26148  0.31147  1.0000
  C   C166      1.0  0.74816  0.26377  0.31718  1.0000
  C   C167      1.0  0.71244  0.24814  0.31157  1.0000
  C   C168      1.0  0.69493  0.26435  0.33990  1.0000
  O   O15       1.0  0.82181  0.29273  0.27934  1.0000
  O   O16       1.0  0.69273  0.21687  0.27960  1.0000
  H   H111      1.0  0.81695  0.29193  0.21466  1.0000
  H   H112      1.0  0.69757  0.21763  0.21491  1.0000
  C   C169      1.0  0.76629  0.02299  0.31728  1.0000
  C   C170      1.0  0.76688  0.07679  0.34037  1.0000
  C   C171      1.0  0.75068  0.04310  0.31177  1.0000
  C   C172      1.0  0.74838  0.48685  0.31693  1.0000
  C   C173      1.0  0.76399  0.46675  0.31101  1.0000
  C   C174      1.0  0.74772  0.43296  0.33876  1.0000
  O   O17       1.0  0.71944  0.03155  0.27962  1.0000
  O   O18       1.0  0.79528  0.47834  0.27921  1.0000
  H   H113      1.0  0.72025  0.02753  0.21492  1.0000
  H   H114      1.0  0.79457  0.48247  0.21454  1.0000
  C   C175      1.0  0.60858  0.24073  0.27863  1.0000
  C   C176      1.0  0.63911  0.24116  0.27357  1.0000
  H   H115      1.0  0.59684  0.23960  0.21927  1.0000
  H   H116      1.0  0.64814  0.24041  0.21130  1.0000
  C   C177      1.0  0.77120  0.37016  0.27740  1.0000
  C   C178      1.0  0.77081  0.40029  0.27227  1.0000
  H   H117      1.0  0.77217  0.35944  0.21808  1.0000
  H   H118      1.0  0.77131  0.40987  0.20988  1.0000
  C   C179      1.0  0.64185  0.40338  0.27772  1.0000
  C   C180      1.0  0.61167  0.37290  0.27336  1.0000
  H   H119      1.0  0.65239  0.41493  0.21810  1.0000
  H   H120      1.0  0.60194  0.36360  0.21125  1.0000
  C   C181      1.0  0.90600  0.26903  0.27808  1.0000
  C   C182      1.0  0.87546  0.26861  0.27338  1.0000
  H   H121      1.0  0.91770  0.27015  0.21866  1.0000
  H   H122      1.0  0.86635  0.26929  0.21120  1.0000
  C   C183      1.0  0.74323  0.13945  0.27839  1.0000
  C   C184      1.0  0.74382  0.10943  0.27368  1.0000
  H   H123      1.0  0.74234  0.15011  0.21887  1.0000
  H   H124      1.0  0.74325  0.09971  0.21143  1.0000
  C   C185      1.0  0.87259  0.10621  0.27804  1.0000
  C   C186      1.0  0.90273  0.13671  0.27293  1.0000
  H   H125      1.0  0.86189  0.09453  0.21869  1.0000
  H   H126      1.0  0.91238  0.14584  0.21063  1.0000
  C   C187      1.0  0.97065  0.26225  0.33227  1.0000
  C   C188      1.0  0.93625  0.24564  0.35040  1.0000
  C   C189      1.0  0.91973  0.21095  0.35784  1.0000
  H   H127      1.0  0.98206  0.28722  0.33968  1.0000
  H   H128      1.0  0.89467  0.19853  0.37042  1.0000
  C   C190      1.0  0.59487  0.29876  0.35924  1.0000
  C   C191      1.0  0.57838  0.26408  0.35145  1.0000
  C   C192      1.0  0.54405  0.24748  0.33248  1.0000
  H   H129      1.0  0.61990  0.31116  0.37229  1.0000
  H   H130      1.0  0.53264  0.22252  0.33977  1.0000
  C   C193      1.0  0.74985  0.21073  0.33238  1.0000
  C   C194      1.0  0.76645  0.19294  0.35071  1.0000
  C   C195      1.0  0.80113  0.21109  0.35841  1.0000
  H   H131      1.0  0.72490  0.19721  0.34006  1.0000
  H   H132      1.0  0.81350  0.19843  0.37129  1.0000
  C   C196      1.0  0.71342  0.29858  0.35800  1.0000
  C   C197      1.0  0.74809  0.31673  0.35020  1.0000
  C   C198      1.0  0.76469  0.29893  0.33223  1.0000
  H   H133      1.0  0.70102  0.31123  0.37075  1.0000
  H   H134      1.0  0.78966  0.31248  0.33938  1.0000
  C   C199      1.0  0.80144  0.04160  0.33248  1.0000
  C   C200      1.0  0.81923  0.07596  0.35098  1.0000
  C   C201      1.0  0.80107  0.09248  0.35894  1.0000
  H   H135      1.0  0.81499  0.03017  0.33962  1.0000
  H   H136      1.0  0.81372  0.11751  0.37180  1.0000
  C   C202      1.0  0.71348  0.41721  0.35668  1.0000
  C   C203      1.0  0.69539  0.43382  0.34959  1.0000
  C   C204      1.0  0.71323  0.46825  0.33211  1.0000
  H   H137      1.0  0.70081  0.39216  0.36936  1.0000
  H   H138      1.0  0.69976  0.47972  0.34025  1.0000
  C   C205      1.0  0.65994  0.24941  0.34976  1.0000
  C   C206      1.0  0.64740  0.25355  0.43268  1.0000
  C   C207      1.0  0.61696  0.25328  0.43898  1.0000
  C   C208      1.0  0.59773  0.24838  0.35977  1.0000
  H   H139      1.0  0.66239  0.26014  0.48834  1.0000
  C   C209      1.0  0.60610  0.25913  0.52819  1.0000
  H   H140      1.0  0.62148  0.25890  0.58344  1.0000
  H   H141      1.0  0.58066  0.23962  0.54136  1.0000
  H   H142      1.0  0.60715  0.28303  0.52945  1.0000
  C   C210      1.0  0.76267  0.41292  0.34853  1.0000
  C   C211      1.0  0.75861  0.39630  0.43145  1.0000
  C   C212      1.0  0.75902  0.36620  0.43785  1.0000
  C   C213      1.0  0.76384  0.35178  0.35876  1.0000
  H   H143      1.0  0.75216  0.40478  0.48722  1.0000
  C   C214      1.0  0.75327  0.34954  0.52710  1.0000
  H   H144      1.0  0.75343  0.36512  0.58231  1.0000
  H   H145      1.0  0.77287  0.34374  0.54027  1.0000
  H   H146      1.0  0.72943  0.32663  0.52842  1.0000
  C   C215      1.0  0.59929  0.35225  0.35001  1.0000
  C   C216      1.0  0.61611  0.36507  0.43261  1.0000
  C   C217      1.0  0.64621  0.39559  0.43834  1.0000
  C   C218      1.0  0.66035  0.41460  0.35880  1.0000
  H   H147      1.0  0.60779  0.35021  0.48856  1.0000
  C   C219      1.0  0.66313  0.40669  0.52720  1.0000
  H   H148      1.0  0.64772  0.39135  0.58278  1.0000
  H   H149      1.0  0.66894  0.43211  0.54013  1.0000
  H   H150      1.0  0.68607  0.40581  0.52804  1.0000
  C   C220      1.0  0.85462  0.26021  0.34960  1.0000
  C   C221      1.0  0.86728  0.25606  0.43231  1.0000
  C   C222      1.0  0.89775  0.25639  0.43836  1.0000
  C   C223      1.0  0.91693  0.26137  0.35903  1.0000
  H   H151      1.0  0.85233  0.24942  0.48808  1.0000
  C   C224      1.0  0.90868  0.25049  0.52741  1.0000
  H   H152      1.0  0.89332  0.25065  0.58280  1.0000
  H   H153      1.0  0.93412  0.27001  0.54056  1.0000
  H   H154      1.0  0.90766  0.22660  0.52842  1.0000
  C   C225      1.0  0.75196  0.09686  0.35013  1.0000
  C   C226      1.0  0.75596  0.11357  0.43287  1.0000
  C   C227      1.0  0.75553  0.14366  0.43899  1.0000
  C   C228      1.0  0.75066  0.15789  0.35963  1.0000
  H   H155      1.0  0.76243  0.10516  0.48876  1.0000
  C   C229      1.0  0.76129  0.16044  0.52805  1.0000
  H   H156      1.0  0.76117  0.14494  0.58344  1.0000
  H   H157      1.0  0.74167  0.16624  0.54105  1.0000
  H   H158      1.0  0.78511  0.18338  0.52917  1.0000
  C   C230      1.0  0.91545  0.15749  0.34919  1.0000
  C   C231      1.0  0.89882  0.14490  0.43217  1.0000
  C   C232      1.0  0.86868  0.11444  0.43863  1.0000
  C   C233      1.0  0.85430  0.09525  0.35948  1.0000
  H   H159      1.0  0.90733  0.15986  0.48789  1.0000
  C   C234      1.0  0.85202  0.10356  0.52789  1.0000
  H   H160      1.0  0.86763  0.11897  0.58308  1.0000
  H   H161      1.0  0.84617  0.07814  0.54104  1.0000
  H   H162      1.0  0.82913  0.10453  0.52924  1.0000
  C   C235      1.0  0.98929  0.74575  0.31711  1.0000
  C   C236      1.0  0.93548  0.69249  0.33955  1.0000
  C   C237      1.0  0.96922  0.71003  0.31139  1.0000
  C   C238      1.0  0.52543  0.76401  0.31728  1.0000
  C   C239      1.0  0.54551  0.79973  0.31177  1.0000
  C   C240      1.0  0.57918  0.81725  0.34057  1.0000
  O   O19       1.0  0.98081  0.69036  0.27933  1.0000
  O   O20       1.0  0.53396  0.81941  0.27954  1.0000
  H   H163      1.0  0.98488  0.69521  0.21464  1.0000
  H   H164      1.0  0.52993  0.81455  0.21486  1.0000
  C   C241      1.0  0.76640  0.74588  0.31718  1.0000
  C   C242      1.0  0.81963  0.74530  0.33997  1.0000
  C   C243      1.0  0.80211  0.76148  0.31147  1.0000
  C   C244      1.0  0.74816  0.76377  0.31718  1.0000
  C   C245      1.0  0.71244  0.74814  0.31157  1.0000
  C   C246      1.0  0.69493  0.76435  0.33990  1.0000
  O   O21       1.0  0.82181  0.79273  0.27934  1.0000
  O   O22       1.0  0.69273  0.71687  0.27960  1.0000
  H   H165      1.0  0.81695  0.79193  0.21466  1.0000
  H   H166      1.0  0.69757  0.71764  0.21491  1.0000
  C   C247      1.0  0.76630  0.52299  0.31728  1.0000
  C   C248      1.0  0.76688  0.57679  0.34037  1.0000
  C   C249      1.0  0.75068  0.54310  0.31177  1.0000
  C   C250      1.0  0.74839  0.98686  0.31693  1.0000
  C   C251      1.0  0.76399  0.96675  0.31101  1.0000
  C   C252      1.0  0.74772  0.93297  0.33876  1.0000
  O   O23       1.0  0.71944  0.53156  0.27962  1.0000
  O   O24       1.0  0.79529  0.97835  0.27921  1.0000
  H   H167      1.0  0.72025  0.52753  0.21492  1.0000
  H   H168      1.0  0.79457  0.98247  0.21454  1.0000
  C   C253      1.0  0.60858  0.74074  0.27863  1.0000
  C   C254      1.0  0.63911  0.74116  0.27357  1.0000
  H   H169      1.0  0.59684  0.73960  0.21927  1.0000
  H   H170      1.0  0.64814  0.74041  0.21130  1.0000
  C   C255      1.0  0.77120  0.87016  0.27740  1.0000
  C   C256      1.0  0.77081  0.90029  0.27227  1.0000
  H   H171      1.0  0.77217  0.85944  0.21808  1.0000
  H   H172      1.0  0.77131  0.90987  0.20988  1.0000
  C   C257      1.0  0.64185  0.90338  0.27772  1.0000
  C   C258      1.0  0.61167  0.87290  0.27336  1.0000
  H   H173      1.0  0.65239  0.91493  0.21810  1.0000
  H   H174      1.0  0.60194  0.86360  0.21125  1.0000
  C   C259      1.0  0.90600  0.76903  0.27808  1.0000
  C   C260      1.0  0.87546  0.76861  0.27338  1.0000
  H   H175      1.0  0.91770  0.77015  0.21866  1.0000
  H   H176      1.0  0.86635  0.76929  0.21120  1.0000
  C   C261      1.0  0.74323  0.63945  0.27839  1.0000
  C   C262      1.0  0.74383  0.60943  0.27368  1.0000
  H   H177      1.0  0.74234  0.65011  0.21887  1.0000
  H   H178      1.0  0.74325  0.59972  0.21143  1.0000
  C   C263      1.0  0.87260  0.60621  0.27804  1.0000
  C   C264      1.0  0.90273  0.63671  0.27293  1.0000
  H   H179      1.0  0.86189  0.59453  0.21869  1.0000
  H   H180      1.0  0.91238  0.64584  0.21063  1.0000
  C   C265      1.0  0.97065  0.76225  0.33227  1.0000
  C   C266      1.0  0.93625  0.74564  0.35040  1.0000
  C   C267      1.0  0.91973  0.71095  0.35784  1.0000
  H   H181      1.0  0.98206  0.78722  0.33968  1.0000
  H   H182      1.0  0.89467  0.69853  0.37042  1.0000
  C   C268      1.0  0.59487  0.79876  0.35924  1.0000
  C   C269      1.0  0.57838  0.76408  0.35145  1.0000
  C   C270      1.0  0.54405  0.74748  0.33248  1.0000
  H   H183      1.0  0.61990  0.81116  0.37229  1.0000
  H   H184      1.0  0.53264  0.72252  0.33977  1.0000
  C   C271      1.0  0.74986  0.71073  0.33238  1.0000
  C   C272      1.0  0.76645  0.69294  0.35071  1.0000
  C   C273      1.0  0.80113  0.71109  0.35841  1.0000
  H   H185      1.0  0.72490  0.69721  0.34006  1.0000
  H   H186      1.0  0.81350  0.69843  0.37129  1.0000
  C   C274      1.0  0.71342  0.79858  0.35800  1.0000
  C   C275      1.0  0.74809  0.81673  0.35020  1.0000
  C   C276      1.0  0.76469  0.79893  0.33223  1.0000
  H   H187      1.0  0.70102  0.81123  0.37075  1.0000
  H   H188      1.0  0.78966  0.81248  0.33938  1.0000
  C   C277      1.0  0.80144  0.54160  0.33248  1.0000
  C   C278      1.0  0.81923  0.57596  0.35098  1.0000
  C   C279      1.0  0.80107  0.59247  0.35894  1.0000
  H   H189      1.0  0.81499  0.53017  0.33962  1.0000
  H   H190      1.0  0.81372  0.61752  0.37180  1.0000
  C   C280      1.0  0.71348  0.91721  0.35668  1.0000
  C   C281      1.0  0.69539  0.93381  0.34959  1.0000
  C   C282      1.0  0.71323  0.96825  0.33211  1.0000
  H   H191      1.0  0.70081  0.89216  0.36936  1.0000
  H   H192      1.0  0.69976  0.97972  0.34025  1.0000
  C   C283      1.0  0.65994  0.74941  0.34976  1.0000
  C   C284      1.0  0.64740  0.75355  0.43268  1.0000
  C   C285      1.0  0.61696  0.75328  0.43898  1.0000
  C   C286      1.0  0.59773  0.74838  0.35977  1.0000
  H   H193      1.0  0.66239  0.76014  0.48834  1.0000
  C   C287      1.0  0.60610  0.75913  0.52819  1.0000
  H   H194      1.0  0.62148  0.75890  0.58344  1.0000
  H   H195      1.0  0.58066  0.73962  0.54136  1.0000
  H   H196      1.0  0.60716  0.78303  0.52945  1.0000
  C   C288      1.0  0.76266  0.91292  0.34853  1.0000
  C   C289      1.0  0.75861  0.89630  0.43145  1.0000
  C   C290      1.0  0.75902  0.86620  0.43785  1.0000
  C   C291      1.0  0.76384  0.85178  0.35876  1.0000
  H   H197      1.0  0.75216  0.90478  0.48722  1.0000
  C   C292      1.0  0.75327  0.84954  0.52710  1.0000
  H   H198      1.0  0.75343  0.86513  0.58231  1.0000
  H   H199      1.0  0.77287  0.84374  0.54027  1.0000
  H   H200      1.0  0.72943  0.82663  0.52842  1.0000
  C   C293      1.0  0.59930  0.85225  0.35001  1.0000
  C   C294      1.0  0.61611  0.86507  0.43261  1.0000
  C   C295      1.0  0.64621  0.89559  0.43834  1.0000
  C   C296      1.0  0.66035  0.91460  0.35880  1.0000
  H   H201      1.0  0.60779  0.85021  0.48856  1.0000
  C   C297      1.0  0.66313  0.90669  0.52720  1.0000
  H   H202      1.0  0.64773  0.89136  0.58278  1.0000
  H   H203      1.0  0.66894  0.93211  0.54013  1.0000
  H   H204      1.0  0.68607  0.90581  0.52804  1.0000
  C   C298      1.0  0.85462  0.76022  0.34960  1.0000
  C   C299      1.0  0.86728  0.75606  0.43231  1.0000
  C   C300      1.0  0.89776  0.75640  0.43836  1.0000
  C   C301      1.0  0.91693  0.76137  0.35903  1.0000
  H   H205      1.0  0.85233  0.74942  0.48808  1.0000
  C   C302      1.0  0.90868  0.75049  0.52741  1.0000
  H   H206      1.0  0.89332  0.75065  0.58280  1.0000
  H   H207      1.0  0.93412  0.77001  0.54056  1.0000
  H   H208      1.0  0.90766  0.72660  0.52842  1.0000
  C   C303      1.0  0.75196  0.59686  0.35013  1.0000
  C   C304      1.0  0.75597  0.61357  0.43287  1.0000
  C   C305      1.0  0.75553  0.64366  0.43899  1.0000
  C   C306      1.0  0.75066  0.65789  0.35963  1.0000
  H   H209      1.0  0.76243  0.60516  0.48876  1.0000
  C   C307      1.0  0.76129  0.66044  0.52805  1.0000
  H   H210      1.0  0.76117  0.64494  0.58344  1.0000
  H   H211      1.0  0.74167  0.66624  0.54105  1.0000
  H   H212      1.0  0.78512  0.68338  0.52917  1.0000
  C   C308      1.0  0.91545  0.65749  0.34919  1.0000
  C   C309      1.0  0.89882  0.64490  0.43217  1.0000
  C   C310      1.0  0.86868  0.61445  0.43863  1.0000
  C   C311      1.0  0.85430  0.59525  0.35948  1.0000
  H   H213      1.0  0.90733  0.65986  0.48789  1.0000
  C   C312      1.0  0.85203  0.60356  0.52789  1.0000
  H   H214      1.0  0.86763  0.61897  0.58308  1.0000
  H   H215      1.0  0.84617  0.57814  0.54104  1.0000
  H   H216      1.0  0.82913  0.60453  0.52924  1.0000
