data_image0
_chemical_formula_structural       C4OC4OH4N2C4OC4OH4N2C4OC4OH4N2C3H2CHC3H2CHC3H2CHC3H2CHC3H2CHC3H2CHC2HC2HN2C2HC2HN2C2HC2HN2C3HOHCHC3HOHCHC3HOHCHC3HOHCHC3HOHCHC3HOHCH
_chemical_formula_sum              "C84 O12 H54 N12"
_cell_length_a       31.8719
_cell_length_b       31.8719
_cell_length_c       15.0695
_cell_angle_alpha    90
_cell_angle_beta     90
_cell_angle_gamma    120

_space_group_name_H-M_alt    "P 1"
_space_group_IT_number       1

loop_
  _space_group_symop_operation_xyz
  'x, y, z'

loop_
  _atom_site_type_symbol
  _atom_site_label
  _atom_site_symmetry_multiplicity
  _atom_site_fract_x
  _atom_site_fract_y
  _atom_site_fract_z
  _atom_site_occupancy
  C   C1        1.0  0.97067  0.48362  0.32254  1.0000
  C   C2        1.0  0.86723  0.42775  0.32453  1.0000
  C   C3        1.0  0.89498  0.40448  0.33193  1.0000
  C   C4        1.0  0.94564  0.43285  0.33924  1.0000
  O   O1        1.0  0.81783  0.40138  0.32327  1.0000
  C   C5        1.0  0.02238  0.51173  0.32248  1.0000
  C   C6        1.0  0.04741  0.56250  0.33914  1.0000
  C   C7        1.0  0.09806  0.59087  0.33188  1.0000
  C   C8        1.0  0.12581  0.56759  0.32444  1.0000
  O   O2        1.0  0.17521  0.59397  0.32323  1.0000
  H   H1        1.0  0.80737  0.38856  0.38359  1.0000
  H   H2        1.0  0.18566  0.60677  0.38356  1.0000
  H   H3        1.0  0.96405  0.41506  0.35290  1.0000
  H   H4        1.0  0.02899  0.58029  0.35294  1.0000
  N   N1        1.0  0.11923  0.63969  0.33696  1.0000
  N   N2        1.0  0.87383  0.35566  0.33700  1.0000
  C   C9        1.0  0.51062  0.48589  0.32252  1.0000
  C   C10       1.0  0.56646  0.43831  0.32452  1.0000
  C   C11       1.0  0.58974  0.48933  0.33191  1.0000
  C   C12       1.0  0.56138  0.51162  0.33921  1.0000
  O   O3        1.0  0.59284  0.41529  0.32326  1.0000
  C   C13       1.0  0.48251  0.50950  0.32246  1.0000
  C   C14       1.0  0.43175  0.48378  0.33916  1.0000
  C   C15       1.0  0.40339  0.50608  0.33192  1.0000
  C   C16       1.0  0.42668  0.55710  0.32445  1.0000
  O   O4        1.0  0.40032  0.58014  0.32325  1.0000
  H   H5        1.0  0.60566  0.41764  0.38357  1.0000
  H   H6        1.0  0.38754  0.57781  0.38360  1.0000
  H   H7        1.0  0.57918  0.54784  0.35287  1.0000
  H   H8        1.0  0.41396  0.44758  0.35299  1.0000
  N   N3        1.0  0.35457  0.47845  0.33709  1.0000
  N   N4        1.0  0.63856  0.51699  0.33698  1.0000
  C   C17       1.0  0.50833  0.02355  0.32255  1.0000
  C   C18       1.0  0.55590  0.12698  0.32447  1.0000
  C   C19       1.0  0.50488  0.09923  0.33189  1.0000
  C   C20       1.0  0.48259  0.04857  0.33923  1.0000
  O   O5        1.0  0.57891  0.17638  0.32315  1.0000
  C   C21       1.0  0.48472  0.97183  0.32252  1.0000
  C   C22       1.0  0.51045  0.94680  0.33919  1.0000
  C   C23       1.0  0.48816  0.89614  0.33196  1.0000
  C   C24       1.0  0.43713  0.86840  0.32453  1.0000
  O   O6        1.0  0.41410  0.81900  0.32333  1.0000
  H   H9        1.0  0.57656  0.18686  0.38346  1.0000
  H   H10       1.0  0.41646  0.80856  0.38367  1.0000
  H   H11       1.0  0.44638  0.03016  0.35291  1.0000
  H   H12       1.0  0.54666  0.96521  0.35298  1.0000
  N   N5        1.0  0.51580  0.87496  0.33706  1.0000
  N   N6        1.0  0.47721  0.12038  0.33697  1.0000
  C   C25       1.0  0.27655  0.47170  0.30504  1.0000
  C   C26       1.0  0.24403  0.46920  0.23871  1.0000
  C   C27       1.0  0.20260  0.47185  0.26086  1.0000
  H   H13       1.0  0.18219  0.47367  0.21016  1.0000
  H   H14       1.0  0.25161  0.46815  0.17296  1.0000
  C   C28       1.0  0.32320  0.48161  0.28079  1.0000
  H   H15       1.0  0.33570  0.49595  0.21900  1.0000
  C   C29       1.0  0.52263  0.80374  0.30493  1.0000
  C   C30       1.0  0.52516  0.77372  0.23863  1.0000
  C   C31       1.0  0.52254  0.72965  0.26080  1.0000
  H   H16       1.0  0.52071  0.70742  0.21010  1.0000
  H   H17       1.0  0.52617  0.78232  0.17288  1.0000
  C   C32       1.0  0.51262  0.84041  0.28078  1.0000
  H   H18       1.0  0.49822  0.83853  0.21902  1.0000
  C   C33       1.0  0.19046  0.71774  0.30491  1.0000
  C   C34       1.0  0.22049  0.75031  0.23863  1.0000
  C   C35       1.0  0.26457  0.79173  0.26082  1.0000
  H   H19       1.0  0.28682  0.81213  0.21014  1.0000
  H   H20       1.0  0.21190  0.74269  0.17288  1.0000
  C   C36       1.0  0.15377  0.67107  0.28069  1.0000
  H   H21       1.0  0.15574  0.65856  0.21898  1.0000
  C   C37       1.0  0.71660  0.52383  0.30500  1.0000
  C   C38       1.0  0.74915  0.52629  0.23873  1.0000
  C   C39       1.0  0.79066  0.52378  0.26092  1.0000
  H   H22       1.0  0.81084  0.52167  0.21009  1.0000
  H   H23       1.0  0.74150  0.52720  0.17298  1.0000
  C   C40       1.0  0.66994  0.51383  0.28071  1.0000
  H   H24       1.0  0.65742  0.49935  0.21900  1.0000
  C   C41       1.0  0.47038  0.19160  0.30500  1.0000
  C   C42       1.0  0.46790  0.22168  0.23875  1.0000
  C   C43       1.0  0.47048  0.26573  0.26096  1.0000
  H   H25       1.0  0.47262  0.28803  0.21013  1.0000
  H   H26       1.0  0.46706  0.21318  0.17298  1.0000
  C   C44       1.0  0.48035  0.15491  0.28069  1.0000
  H   H27       1.0  0.49480  0.15686  0.21896  1.0000
  C   C45       1.0  0.80260  0.27760  0.30504  1.0000
  C   C46       1.0  0.77256  0.24506  0.23874  1.0000
  C   C47       1.0  0.72853  0.20355  0.26090  1.0000
  H   H28       1.0  0.70615  0.18339  0.21016  1.0000
  H   H29       1.0  0.78105  0.25276  0.17298  1.0000
  C   C48       1.0  0.83927  0.32427  0.28076  1.0000
  H   H30       1.0  0.83730  0.33679  0.21905  1.0000
  C   C49       1.0  0.94145  0.50499  0.30637  1.0000
  C   C50       1.0  0.89070  0.47860  0.31458  1.0000
  H   H31       1.0  0.95688  0.54108  0.29266  1.0000
  C   C51       1.0  0.10234  0.51675  0.31446  1.0000
  C   C52       1.0  0.05159  0.49036  0.30617  1.0000
  H   H32       1.0  0.03616  0.45425  0.29264  1.0000
  N   N7        1.0  0.12618  0.49152  0.31428  1.0000
  N   N8        1.0  0.86687  0.50384  0.31439  1.0000
  C   C53       1.0  0.48923  0.43530  0.30637  1.0000
  C   C54       1.0  0.51562  0.41094  0.31459  1.0000
  H   H33       1.0  0.45313  0.41464  0.29268  1.0000
  C   C55       1.0  0.47752  0.58446  0.31442  1.0000
  C   C56       1.0  0.50389  0.56008  0.30611  1.0000
  H   H34       1.0  0.54000  0.58074  0.29254  1.0000
  N   N9        1.0  0.50277  0.63353  0.31422  1.0000
  N   N10       1.0  0.49037  0.36186  0.31440  1.0000
  C   C57       1.0  0.55892  0.05276  0.30639  1.0000
  C   C58       1.0  0.58328  0.10352  0.31456  1.0000
  H   H35       1.0  0.57959  0.03733  0.29271  1.0000
  C   C59       1.0  0.40977  0.89188  0.31452  1.0000
  C   C60       1.0  0.43414  0.94262  0.30621  1.0000
  H   H36       1.0  0.41347  0.95806  0.29266  1.0000
  N   N11       1.0  0.36070  0.86805  0.31432  1.0000
  N   N12       1.0  0.63235  0.12735  0.31437  1.0000
  C   C61       1.0  0.19549  0.48193  0.34919  1.0000
  C   C62       1.0  0.22617  0.48113  0.41669  1.0000
  C   C63       1.0  0.26506  0.47387  0.39486  1.0000
  H   H37       1.0  0.28874  0.47751  0.44419  1.0000
  O   O7        1.0  0.22169  0.49080  0.50313  1.0000
  H   H38       1.0  0.19483  0.46077  0.52771  1.0000
  C   C64       1.0  0.16392  0.49973  0.36690  1.0000
  H   H39       1.0  0.16859  0.51879  0.42433  1.0000
  C   C65       1.0  0.51242  0.71247  0.34912  1.0000
  C   C66       1.0  0.51323  0.74395  0.41660  1.0000
  C   C67       1.0  0.52056  0.79013  0.39478  1.0000
  H   H40       1.0  0.51672  0.81006  0.44409  1.0000
  O   O8        1.0  0.50343  0.72977  0.50300  1.0000
  H   H41       1.0  0.53341  0.73289  0.52773  1.0000
  C   C68       1.0  0.49457  0.66308  0.36682  1.0000
  H   H42       1.0  0.47551  0.64870  0.42425  1.0000
  C   C69       1.0  0.28175  0.79876  0.34915  1.0000
  C   C70       1.0  0.25024  0.76807  0.41659  1.0000
  C   C71       1.0  0.20403  0.72928  0.39480  1.0000
  H   H43       1.0  0.18408  0.70542  0.44395  1.0000
  O   O9        1.0  0.26443  0.77240  0.50298  1.0000
  H   H44       1.0  0.26132  0.79925  0.52779  1.0000
  C   C72       1.0  0.33114  0.83027  0.36686  1.0000
  H   H45       1.0  0.34551  0.82556  0.42427  1.0000
  C   C73       1.0  0.79763  0.51355  0.34922  1.0000
  C   C74       1.0  0.76698  0.51441  0.41669  1.0000
  C   C75       1.0  0.72815  0.52175  0.39485  1.0000
  H   H46       1.0  0.70437  0.51804  0.44405  1.0000
  O   O10       1.0  0.77133  0.50460  0.50310  1.0000
  H   H47       1.0  0.79826  0.53453  0.52780  1.0000
  C   C76       1.0  0.82908  0.49560  0.36690  1.0000
  H   H48       1.0  0.82434  0.47649  0.42429  1.0000
  C   C77       1.0  0.48066  0.28291  0.34928  1.0000
  C   C78       1.0  0.47978  0.25138  0.41673  1.0000
  C   C79       1.0  0.47254  0.20526  0.39484  1.0000
  H   H49       1.0  0.47612  0.18514  0.44408  1.0000
  O   O11       1.0  0.48955  0.26552  0.50316  1.0000
  H   H50       1.0  0.45961  0.26254  0.52779  1.0000
  C   C80       1.0  0.49861  0.33232  0.36692  1.0000
  H   H51       1.0  0.51772  0.34668  0.42431  1.0000
  C   C81       1.0  0.71132  0.19659  0.34922  1.0000
  C   C82       1.0  0.74283  0.22725  0.41669  1.0000
  C   C83       1.0  0.78902  0.26606  0.39489  1.0000
  H   H52       1.0  0.80908  0.28983  0.44409  1.0000
  O   O12       1.0  0.72866  0.22286  0.50309  1.0000
  H   H53       1.0  0.73168  0.19592  0.52776  1.0000
  C   C84       1.0  0.66190  0.16518  0.36682  1.0000
  H   H54       1.0  0.64753  0.16994  0.42420  1.0000
