data_image0
_chemical_formula_structural       COHC2OHCOHC2OHNCN2CNO2C2NCOCO3C2NCOCOC2OH2C2OH2COHCNCNCNC3HOHC3HOHC2OHC2OH2C2OH2COHCNCNCNC3HOHC3HOHC2OHC2O2H2C2O2H2C2O2H2CNCNCNCNCNCNC4OHOHC4OHOHC4OHOHC2O2H2C2O2H2C2O2H2CNCNCNCNCNCNC4OHOHC4OHOHC4OHOH
_chemical_formula_sum              "C96 O48 H48 N24"
_cell_length_a       29.1223
_cell_length_b       29.1222
_cell_length_c       14.773
_cell_angle_alpha    90
_cell_angle_beta     90
_cell_angle_gamma    120

_space_group_name_H-M_alt    "P 1"
_space_group_IT_number       1

loop_
  _space_group_symop_operation_xyz
  'x, y, z'

loop_
  _atom_site_type_symbol
  _atom_site_label
  _atom_site_symmetry_multiplicity
  _atom_site_fract_x
  _atom_site_fract_y
  _atom_site_fract_z
  _atom_site_occupancy
  C   C1        1.0  0.03962  0.27130  0.26693  1.0000
  O   O1        1.0  0.06583  0.28503  0.18627  1.0000
  H   H1        1.0  0.06968  0.25468  0.16773  1.0000
  C   C2        1.0  0.03958  0.27143  0.43204  1.0000
  C   C3        1.0  0.06816  0.28603  0.34950  1.0000
  O   O2        1.0  0.06575  0.28519  0.51273  1.0000
  H   H2        1.0  0.06967  0.25489  0.53130  1.0000
  C   C4        1.0  0.03962  0.77130  0.26693  1.0000
  O   O3        1.0  0.06583  0.78503  0.18627  1.0000
  H   H3        1.0  0.06968  0.75469  0.16773  1.0000
  C   C5        1.0  0.03958  0.77142  0.43204  1.0000
  C   C6        1.0  0.06816  0.78603  0.34950  1.0000
  O   O4        1.0  0.06575  0.78519  0.51273  1.0000
  H   H4        1.0  0.06967  0.75489  0.53130  1.0000
  N   N1        1.0  0.15135  0.36787  0.34960  1.0000
  C   C7        1.0  0.12397  0.31391  0.34954  1.0000
  N   N2        1.0  0.15134  0.28732  0.34942  1.0000
  N   N3        1.0  0.15135  0.86787  0.34960  1.0000
  C   C8        1.0  0.12397  0.81391  0.34954  1.0000
  N   N4        1.0  0.15134  0.78732  0.34942  1.0000
  O   O5        1.0  0.23413  0.28451  0.18617  1.0000
  O   O6        1.0  0.23429  0.45339  0.18629  1.0000
  C   C9        1.0  0.20531  0.39524  0.34952  1.0000
  C   C10       1.0  0.20530  0.31390  0.34935  1.0000
  N   N5        1.0  0.23189  0.36786  0.34940  1.0000
  C   C11       1.0  0.23318  0.28597  0.34940  1.0000
  O   O7        1.0  0.23406  0.28453  0.51265  1.0000
  C   C12       1.0  0.23320  0.45105  0.34951  1.0000
  O   O8        1.0  0.23393  0.45342  0.51273  1.0000
  O   O9        1.0  0.23414  0.78451  0.18617  1.0000
  O   O10       1.0  0.23429  0.95339  0.18629  1.0000
  C   C13       1.0  0.20531  0.89524  0.34952  1.0000
  C   C14       1.0  0.20530  0.81390  0.34935  1.0000
  N   N6        1.0  0.23189  0.86786  0.34940  1.0000
  C   C15       1.0  0.23318  0.78597  0.34940  1.0000
  O   O11       1.0  0.23406  0.78453  0.51265  1.0000
  C   C16       1.0  0.23319  0.95105  0.34951  1.0000
  O   O12       1.0  0.23393  0.95342  0.51273  1.0000
  C   C17       1.0  0.24786  0.27207  0.26687  1.0000
  C   C18       1.0  0.27524  0.24330  0.26693  1.0000
  O   O13       1.0  0.28899  0.23084  0.18627  1.0000
  H   H5        1.0  0.26441  0.31875  0.16770  1.0000
  H   H6        1.0  0.25869  0.19662  0.16775  1.0000
  C   C19       1.0  0.24796  0.47960  0.26695  1.0000
  C   C20       1.0  0.27530  0.03575  0.26694  1.0000
  O   O14       1.0  0.28910  0.06194  0.18626  1.0000
  H   H7        1.0  0.26477  0.44983  0.16756  1.0000
  H   H8        1.0  0.25875  0.06574  0.16755  1.0000
  C   C21       1.0  0.48347  0.24394  0.26689  1.0000
  O   O15       1.0  0.45730  0.23016  0.18619  1.0000
  H   H9        1.0  0.45342  0.26048  0.16758  1.0000
  C   C22       1.0  0.31773  0.12013  0.34948  1.0000
  N   N7        1.0  0.37169  0.14749  0.34937  1.0000
  C   C23       1.0  0.39908  0.20145  0.34939  1.0000
  N   N8        1.0  0.37171  0.22804  0.34948  1.0000
  C   C24       1.0  0.31776  0.20147  0.34956  1.0000
  N   N9        1.0  0.29116  0.14751  0.34957  1.0000
  C   C25       1.0  0.28988  0.22941  0.34951  1.0000
  C   C26       1.0  0.27519  0.24330  0.43204  1.0000
  C   C27       1.0  0.24783  0.27208  0.43199  1.0000
  H   H10       1.0  0.26435  0.31877  0.53114  1.0000
  O   O16       1.0  0.28892  0.23086  0.51274  1.0000
  H   H11       1.0  0.25864  0.19662  0.53121  1.0000
  C   C28       1.0  0.28984  0.06432  0.34949  1.0000
  C   C29       1.0  0.27507  0.03576  0.43205  1.0000
  C   C30       1.0  0.24773  0.47962  0.43207  1.0000
  H   H12       1.0  0.26436  0.44979  0.53161  1.0000
  O   O17       1.0  0.28875  0.06197  0.51271  1.0000
  H   H13       1.0  0.25828  0.06558  0.53142  1.0000
  C   C31       1.0  0.45489  0.22932  0.34942  1.0000
  C   C32       1.0  0.48343  0.24405  0.43200  1.0000
  O   O18       1.0  0.45722  0.23032  0.51266  1.0000
  H   H14       1.0  0.45339  0.26067  0.53121  1.0000
  C   C33       1.0  0.24787  0.77207  0.26687  1.0000
  C   C34       1.0  0.27524  0.74331  0.26693  1.0000
  O   O19       1.0  0.28900  0.73084  0.18627  1.0000
  H   H15       1.0  0.26441  0.81876  0.16771  1.0000
  H   H16       1.0  0.25869  0.69662  0.16775  1.0000
  C   C35       1.0  0.24796  0.97960  0.26695  1.0000
  C   C36       1.0  0.27530  0.53575  0.26694  1.0000
  O   O20       1.0  0.28909  0.56194  0.18626  1.0000
  H   H17       1.0  0.26477  0.94983  0.16756  1.0000
  H   H18       1.0  0.25875  0.56574  0.16755  1.0000
  C   C37       1.0  0.48347  0.74394  0.26689  1.0000
  O   O21       1.0  0.45730  0.73017  0.18619  1.0000
  H   H19       1.0  0.45342  0.76048  0.16758  1.0000
  C   C38       1.0  0.31773  0.62013  0.34948  1.0000
  N   N10       1.0  0.37169  0.64749  0.34937  1.0000
  C   C39       1.0  0.39908  0.70145  0.34939  1.0000
  N   N11       1.0  0.37171  0.72804  0.34948  1.0000
  C   C40       1.0  0.31776  0.70147  0.34956  1.0000
  N   N12       1.0  0.29116  0.64751  0.34958  1.0000
  C   C41       1.0  0.28988  0.72941  0.34951  1.0000
  C   C42       1.0  0.27519  0.74330  0.43204  1.0000
  C   C43       1.0  0.24783  0.77208  0.43199  1.0000
  H   H20       1.0  0.26434  0.81878  0.53113  1.0000
  O   O22       1.0  0.28892  0.73086  0.51274  1.0000
  H   H21       1.0  0.25864  0.69662  0.53122  1.0000
  C   C44       1.0  0.28984  0.56432  0.34950  1.0000
  C   C45       1.0  0.27507  0.53576  0.43205  1.0000
  C   C46       1.0  0.24773  0.97962  0.43207  1.0000
  H   H22       1.0  0.26436  0.94979  0.53161  1.0000
  O   O23       1.0  0.28875  0.56197  0.51272  1.0000
  H   H23       1.0  0.25828  0.56558  0.53142  1.0000
  C   C47       1.0  0.45489  0.72932  0.34942  1.0000
  C   C48       1.0  0.48343  0.74405  0.43200  1.0000
  O   O24       1.0  0.45722  0.73032  0.51266  1.0000
  H   H24       1.0  0.45339  0.76067  0.53121  1.0000
  C   C49       1.0  0.74786  0.27207  0.26687  1.0000
  C   C50       1.0  0.77524  0.24330  0.26693  1.0000
  O   O25       1.0  0.73413  0.28451  0.18617  1.0000
  O   O26       1.0  0.78899  0.23084  0.18627  1.0000
  H   H25       1.0  0.76441  0.31875  0.16770  1.0000
  H   H26       1.0  0.75869  0.19662  0.16775  1.0000
  C   C51       1.0  0.74796  0.47960  0.26695  1.0000
  C   C52       1.0  0.77531  0.03575  0.26694  1.0000
  O   O27       1.0  0.73429  0.45339  0.18629  1.0000
  O   O28       1.0  0.78910  0.06194  0.18626  1.0000
  H   H27       1.0  0.76477  0.44983  0.16756  1.0000
  H   H28       1.0  0.75875  0.06574  0.16755  1.0000
  C   C53       1.0  0.53962  0.27130  0.26693  1.0000
  C   C54       1.0  0.98347  0.24394  0.26689  1.0000
  O   O29       1.0  0.56583  0.28503  0.18627  1.0000
  O   O30       1.0  0.95729  0.23016  0.18619  1.0000
  H   H29       1.0  0.56967  0.25468  0.16773  1.0000
  H   H30       1.0  0.95342  0.26048  0.16758  1.0000
  C   C55       1.0  0.70531  0.39524  0.34952  1.0000
  N   N13       1.0  0.65135  0.36787  0.34960  1.0000
  C   C56       1.0  0.62397  0.31391  0.34954  1.0000
  N   N14       1.0  0.65134  0.28732  0.34942  1.0000
  C   C57       1.0  0.70530  0.31390  0.34935  1.0000
  N   N15       1.0  0.73189  0.36786  0.34940  1.0000
  C   C58       1.0  0.81773  0.12013  0.34948  1.0000
  N   N16       1.0  0.87169  0.14749  0.34937  1.0000
  C   C59       1.0  0.89908  0.20145  0.34939  1.0000
  N   N17       1.0  0.87171  0.22804  0.34948  1.0000
  C   C60       1.0  0.81776  0.20147  0.34956  1.0000
  N   N18       1.0  0.79116  0.14751  0.34957  1.0000
  C   C61       1.0  0.78988  0.22941  0.34951  1.0000
  C   C62       1.0  0.77519  0.24330  0.43204  1.0000
  C   C63       1.0  0.74783  0.27208  0.43199  1.0000
  C   C64       1.0  0.73318  0.28597  0.34940  1.0000
  O   O31       1.0  0.73406  0.28453  0.51265  1.0000
  H   H31       1.0  0.76435  0.31877  0.53114  1.0000
  O   O32       1.0  0.78892  0.23086  0.51274  1.0000
  H   H32       1.0  0.75863  0.19662  0.53121  1.0000
  C   C65       1.0  0.78984  0.06432  0.34949  1.0000
  C   C66       1.0  0.77507  0.03576  0.43205  1.0000
  C   C67       1.0  0.74773  0.47962  0.43207  1.0000
  C   C68       1.0  0.73319  0.45105  0.34951  1.0000
  O   O33       1.0  0.73393  0.45342  0.51273  1.0000
  H   H33       1.0  0.76436  0.44979  0.53161  1.0000
  O   O34       1.0  0.78875  0.06197  0.51271  1.0000
  H   H34       1.0  0.75828  0.06558  0.53142  1.0000
  C   C69       1.0  0.95489  0.22932  0.34942  1.0000
  C   C70       1.0  0.98343  0.24405  0.43200  1.0000
  C   C71       1.0  0.53958  0.27143  0.43204  1.0000
  C   C72       1.0  0.56816  0.28603  0.34950  1.0000
  O   O35       1.0  0.56576  0.28519  0.51273  1.0000
  H   H35       1.0  0.56966  0.25489  0.53130  1.0000
  O   O36       1.0  0.95722  0.23032  0.51266  1.0000
  H   H36       1.0  0.95339  0.26067  0.53121  1.0000
  C   C73       1.0  0.74787  0.77207  0.26687  1.0000
  C   C74       1.0  0.77524  0.74331  0.26693  1.0000
  O   O37       1.0  0.73413  0.78451  0.18617  1.0000
  O   O38       1.0  0.78900  0.73084  0.18627  1.0000
  H   H37       1.0  0.76441  0.81876  0.16771  1.0000
  H   H38       1.0  0.75869  0.69662  0.16775  1.0000
  C   C75       1.0  0.74796  0.97960  0.26695  1.0000
  C   C76       1.0  0.77530  0.53575  0.26694  1.0000
  O   O39       1.0  0.73429  0.95339  0.18629  1.0000
  O   O40       1.0  0.78910  0.56194  0.18626  1.0000
  H   H39       1.0  0.76477  0.94983  0.16756  1.0000
  H   H40       1.0  0.75875  0.56574  0.16755  1.0000
  C   C77       1.0  0.53962  0.77130  0.26693  1.0000
  C   C78       1.0  0.98347  0.74394  0.26689  1.0000
  O   O41       1.0  0.56583  0.78503  0.18627  1.0000
  O   O42       1.0  0.95730  0.73017  0.18619  1.0000
  H   H41       1.0  0.56968  0.75469  0.16773  1.0000
  H   H42       1.0  0.95342  0.76048  0.16758  1.0000
  C   C79       1.0  0.70531  0.89524  0.34952  1.0000
  N   N19       1.0  0.65135  0.86787  0.34960  1.0000
  C   C80       1.0  0.62397  0.81391  0.34954  1.0000
  N   N20       1.0  0.65134  0.78732  0.34942  1.0000
  C   C81       1.0  0.70530  0.81390  0.34935  1.0000
  N   N21       1.0  0.73189  0.86786  0.34940  1.0000
  C   C82       1.0  0.81773  0.62013  0.34948  1.0000
  N   N22       1.0  0.87169  0.64749  0.34937  1.0000
  C   C83       1.0  0.89907  0.70145  0.34939  1.0000
  N   N23       1.0  0.87171  0.72804  0.34948  1.0000
  C   C84       1.0  0.81776  0.70147  0.34956  1.0000
  N   N24       1.0  0.79116  0.64751  0.34958  1.0000
  C   C85       1.0  0.78988  0.72941  0.34951  1.0000
  C   C86       1.0  0.77519  0.74330  0.43204  1.0000
  C   C87       1.0  0.74782  0.77208  0.43199  1.0000
  C   C88       1.0  0.73318  0.78597  0.34940  1.0000
  O   O43       1.0  0.73406  0.78453  0.51265  1.0000
  H   H43       1.0  0.76434  0.81878  0.53113  1.0000
  O   O44       1.0  0.78892  0.73086  0.51274  1.0000
  H   H44       1.0  0.75863  0.69662  0.53122  1.0000
  C   C89       1.0  0.78984  0.56432  0.34950  1.0000
  C   C90       1.0  0.77507  0.53576  0.43205  1.0000
  C   C91       1.0  0.74773  0.97962  0.43207  1.0000
  C   C92       1.0  0.73319  0.95105  0.34951  1.0000
  O   O45       1.0  0.73393  0.95342  0.51273  1.0000
  H   H45       1.0  0.76436  0.94979  0.53161  1.0000
  O   O46       1.0  0.78874  0.56197  0.51272  1.0000
  H   H46       1.0  0.75828  0.56558  0.53142  1.0000
  C   C93       1.0  0.95489  0.72932  0.34942  1.0000
  C   C94       1.0  0.98343  0.74405  0.43200  1.0000
  C   C95       1.0  0.53958  0.77142  0.43204  1.0000
  C   C96       1.0  0.56816  0.78603  0.34950  1.0000
  O   O47       1.0  0.56575  0.78519  0.51273  1.0000
  H   H47       1.0  0.56967  0.75489  0.53130  1.0000
  O   O48       1.0  0.95722  0.73032  0.51266  1.0000
  H   H48       1.0  0.95339  0.76067  0.53121  1.0000
