data_image0
_chemical_formula_structural       NHCHC2HC4HC2HNH2C2H2C4HC4HN2H4C2H2C4HC4HN2H4C2H2C3H2NC3H2NC3H2NC3H2NC3H2NC3H2NC2HC3H2C2HC2HC2H2C2HC2HC2H2C3N2O4NC3N2O4NC3N2O4NC3N2O4NC3N2O4NC3N2O4N
_chemical_formula_sum              "N30 H48 C84 O24"
_cell_length_a       31.2959
_cell_length_b       31.2959
_cell_length_c       14.9404
_cell_angle_alpha    90
_cell_angle_beta     90
_cell_angle_gamma    120

_space_group_name_H-M_alt    "P 1"
_space_group_IT_number       1

loop_
  _space_group_symop_operation_xyz
  'x, y, z'

loop_
  _atom_site_type_symbol
  _atom_site_label
  _atom_site_symmetry_multiplicity
  _atom_site_fract_x
  _atom_site_fract_y
  _atom_site_fract_z
  _atom_site_occupancy
  N   N1        1.0  0.02502  0.58700  0.21390  1.0000
  H   H1        1.0  0.00928  0.44020  0.17956  1.0000
  C   C1        1.0  0.02899  0.51929  0.28335  1.0000
  H   H2        1.0  0.03751  0.62132  0.19916  1.0000
  C   C2        1.0  0.05002  0.57146  0.26733  1.0000
  C   C3        1.0  0.06137  0.50299  0.31568  1.0000
  H   H3        1.0  0.04840  0.46654  0.32934  1.0000
  C   C4        1.0  0.97675  0.48444  0.28346  1.0000
  C   C5        1.0  0.88145  0.41720  0.34658  1.0000
  C   C6        1.0  0.90836  0.39765  0.30389  1.0000
  C   C7        1.0  0.95569  0.43228  0.26729  1.0000
  H   H4        1.0  0.84641  0.39355  0.36818  1.0000
  C   C8        1.0  0.09730  0.60610  0.30405  1.0000
  C   C9        1.0  0.12416  0.58652  0.34682  1.0000
  H   H5        1.0  0.15911  0.61015  0.36893  1.0000
  N   N2        1.0  0.98073  0.41674  0.21394  1.0000
  H   H6        1.0  0.96799  0.38244  0.19872  1.0000
  H   H7        1.0  0.99636  0.56356  0.17971  1.0000
  C   C10       1.0  0.88429  0.34524  0.29588  1.0000
  C   C11       1.0  0.12136  0.65851  0.29605  1.0000
  H   H8        1.0  0.89589  0.32841  0.25163  1.0000
  H   H9        1.0  0.10971  0.67532  0.25190  1.0000
  C   C12       1.0  0.52053  0.49356  0.28370  1.0000
  C   C13       1.0  0.58775  0.46528  0.34572  1.0000
  C   C14       1.0  0.60732  0.51195  0.30379  1.0000
  C   C15       1.0  0.57269  0.52473  0.26756  1.0000
  H   H10       1.0  0.61141  0.45388  0.36725  1.0000
  C   C16       1.0  0.48568  0.51096  0.28397  1.0000
  C   C17       1.0  0.43353  0.47989  0.26763  1.0000
  C   C18       1.0  0.39888  0.49247  0.30448  1.0000
  C   C19       1.0  0.41842  0.53881  0.34761  1.0000
  H   H11       1.0  0.39479  0.55012  0.36974  1.0000
  N   N3        1.0  0.58821  0.56544  0.21458  1.0000
  N   N4        1.0  0.41804  0.43951  0.21380  1.0000
  H   H12       1.0  0.56473  0.57060  0.18041  1.0000
  H   H13       1.0  0.62250  0.58698  0.19924  1.0000
  H   H14       1.0  0.38373  0.41775  0.19885  1.0000
  H   H15       1.0  0.44151  0.43437  0.17954  1.0000
  C   C20       1.0  0.65974  0.54043  0.29618  1.0000
  C   C21       1.0  0.34648  0.46420  0.29618  1.0000
  H   H16       1.0  0.67662  0.56913  0.25254  1.0000
  H   H17       1.0  0.32971  0.43588  0.25173  1.0000
  C   C22       1.0  0.51183  0.02808  0.28361  1.0000
  C   C23       1.0  0.53968  0.12316  0.34745  1.0000
  C   C24       1.0  0.49336  0.09641  0.30422  1.0000
  C   C25       1.0  0.48074  0.04916  0.26741  1.0000
  H   H18       1.0  0.55101  0.15810  0.36957  1.0000
  C   C26       1.0  0.49440  0.97583  0.28361  1.0000
  C   C27       1.0  0.52553  0.95479  0.26746  1.0000
  C   C28       1.0  0.51277  0.90742  0.30389  1.0000
  C   C29       1.0  0.46619  0.88042  0.34617  1.0000
  H   H19       1.0  0.45480  0.84537  0.36777  1.0000
  N   N5        1.0  0.44028  0.02422  0.21376  1.0000
  N   N6        1.0  0.56620  0.97989  0.21435  1.0000
  H   H20       1.0  0.43525  0.99569  0.17935  1.0000
  H   H21       1.0  0.41866  0.03688  0.19852  1.0000
  H   H22       1.0  0.58770  0.96710  0.19896  1.0000
  H   H23       1.0  0.57127  0.00845  0.18000  1.0000
  C   C30       1.0  0.46503  0.12049  0.29612  1.0000
  C   C31       1.0  0.54119  0.88341  0.29616  1.0000
  H   H24       1.0  0.43665  0.10890  0.25181  1.0000
  H   H25       1.0  0.56974  0.89510  0.25221  1.0000
  C   C32       1.0  0.27037  0.46635  0.35597  1.0000
  C   C33       1.0  0.23389  0.44266  0.28976  1.0000
  C   C34       1.0  0.18989  0.44463  0.29320  1.0000
  H   H26       1.0  0.16678  0.43210  0.23902  1.0000
  H   H27       1.0  0.24126  0.42845  0.23405  1.0000
  N   N7        1.0  0.31700  0.47488  0.34654  1.0000
  C   C35       1.0  0.53889  0.80516  0.35646  1.0000
  C   C36       1.0  0.56260  0.79225  0.29050  1.0000
  C   C37       1.0  0.56049  0.74621  0.29422  1.0000
  H   H28       1.0  0.57301  0.73552  0.24019  1.0000
  H   H29       1.0  0.57687  0.81373  0.23472  1.0000
  N   N8        1.0  0.53039  0.84327  0.34663  1.0000
  C   C38       1.0  0.19969  0.73456  0.35579  1.0000
  C   C39       1.0  0.21234  0.77113  0.28979  1.0000
  C   C40       1.0  0.25833  0.81511  0.29312  1.0000
  H   H30       1.0  0.26882  0.83828  0.23904  1.0000
  H   H31       1.0  0.19066  0.76383  0.23426  1.0000
  N   N9        1.0  0.16159  0.68793  0.34630  1.0000
  C   C41       1.0  0.73571  0.53801  0.35613  1.0000
  C   C42       1.0  0.77241  0.56206  0.29042  1.0000
  C   C43       1.0  0.81635  0.55998  0.29389  1.0000
  H   H32       1.0  0.83963  0.57277  0.23996  1.0000
  H   H33       1.0  0.76524  0.57658  0.23494  1.0000
  N   N10       1.0  0.68910  0.52950  0.34636  1.0000
  C   C44       1.0  0.46728  0.19883  0.35569  1.0000
  C   C45       1.0  0.44334  0.21143  0.28966  1.0000
  C   C46       1.0  0.44528  0.25739  0.29292  1.0000
  H   H34       1.0  0.43258  0.26784  0.23882  1.0000
  H   H35       1.0  0.42896  0.18972  0.23416  1.0000
  N   N11       1.0  0.47582  0.16073  0.34632  1.0000
  C   C47       1.0  0.80605  0.26922  0.35599  1.0000
  C   C48       1.0  0.79311  0.23268  0.28984  1.0000
  C   C49       1.0  0.74708  0.18875  0.29349  1.0000
  H   H36       1.0  0.73638  0.16559  0.23936  1.0000
  H   H37       1.0  0.81458  0.23998  0.23402  1.0000
  N   N12       1.0  0.84417  0.31583  0.34634  1.0000
  C   C50       1.0  0.94438  0.50072  0.31583  1.0000
  C   C51       1.0  0.89632  0.46769  0.34581  1.0000
  H   H38       1.0  0.95729  0.53720  0.32915  1.0000
  C   C52       1.0  0.10932  0.53605  0.34617  1.0000
  C   C53       1.0  0.14322  0.52198  0.37703  1.0000
  C   C54       1.0  0.86235  0.48178  0.37609  1.0000
  H   H39       1.0  0.17463  0.54923  0.40602  1.0000
  H   H40       1.0  0.83072  0.45447  0.40449  1.0000
  C   C55       1.0  0.50422  0.44479  0.31554  1.0000
  C   C56       1.0  0.53726  0.42969  0.34507  1.0000
  H   H41       1.0  0.46773  0.42124  0.32881  1.0000
  C   C57       1.0  0.46891  0.57442  0.34732  1.0000
  C   C58       1.0  0.50197  0.55951  0.31694  1.0000
  H   H42       1.0  0.53844  0.58296  0.33049  1.0000
  C   C59       1.0  0.48297  0.62229  0.37864  1.0000
  C   C60       1.0  0.52324  0.38161  0.37507  1.0000
  H   H43       1.0  0.45575  0.62650  0.40757  1.0000
  H   H44       1.0  0.55051  0.37715  0.40324  1.0000
  C   C61       1.0  0.56045  0.06039  0.31624  1.0000
  C   C62       1.0  0.57530  0.10830  0.34689  1.0000
  H   H45       1.0  0.58388  0.04738  0.33003  1.0000
  C   C63       1.0  0.43060  0.89532  0.34539  1.0000
  C   C64       1.0  0.44567  0.94342  0.31561  1.0000
  H   H46       1.0  0.42212  0.95637  0.32882  1.0000
  C   C65       1.0  0.38252  0.86130  0.37548  1.0000
  C   C66       1.0  0.62318  0.14211  0.37824  1.0000
  H   H47       1.0  0.37806  0.82959  0.40378  1.0000
  H   H48       1.0  0.62737  0.17348  0.40741  1.0000
  C   C67       1.0  0.18194  0.47113  0.36150  1.0000
  C   C68       1.0  0.21547  0.48899  0.43491  1.0000
  C   C69       1.0  0.25991  0.48703  0.43170  1.0000
  N   N13       1.0  0.20206  0.50586  0.51239  1.0000
  N   N14       1.0  0.29273  0.50719  0.50526  1.0000
  O   O1        1.0  0.19549  0.47869  0.57896  1.0000
  O   O2        1.0  0.30289  0.47680  0.54010  1.0000
  O   O3        1.0  0.23290  0.54976  0.53242  1.0000
  O   O4        1.0  0.33174  0.54607  0.48537  1.0000
  N   N15       1.0  0.14614  0.48297  0.34486  1.0000
  C   C70       1.0  0.53388  0.71186  0.36261  1.0000
  C   C71       1.0  0.51604  0.72770  0.43582  1.0000
  C   C72       1.0  0.51809  0.77413  0.43226  1.0000
  N   N16       1.0  0.49908  0.69753  0.51341  1.0000
  N   N17       1.0  0.49793  0.78695  0.50561  1.0000
  O   O5        1.0  0.52621  0.71817  0.57999  1.0000
  O   O6        1.0  0.52839  0.82749  0.54039  1.0000
  O   O7        1.0  0.45518  0.68458  0.53329  1.0000
  O   O8        1.0  0.45916  0.78725  0.48544  1.0000
  N   N18       1.0  0.52195  0.66417  0.34621  1.0000
  C   C73       1.0  0.29293  0.82294  0.36106  1.0000
  C   C74       1.0  0.27739  0.78933  0.43435  1.0000
  C   C75       1.0  0.23097  0.74493  0.43127  1.0000
  N   N19       1.0  0.30785  0.80266  0.51157  1.0000
  N   N20       1.0  0.21844  0.71203  0.50470  1.0000
  O   O9        1.0  0.28744  0.80922  0.57842  1.0000
  O   O10       1.0  0.17796  0.70186  0.53986  1.0000
  O   O11       1.0  0.32092  0.77178  0.53120  1.0000
  O   O12       1.0  0.21826  0.67304  0.48449  1.0000
  N   N21       1.0  0.34057  0.85869  0.34417  1.0000
  C   C76       1.0  0.82402  0.53303  0.36170  1.0000
  C   C77       1.0  0.79026  0.51483  0.43476  1.0000
  C   C78       1.0  0.74588  0.51689  0.43151  1.0000
  N   N22       1.0  0.80341  0.49751  0.51195  1.0000
  N   N23       1.0  0.71284  0.49639  0.50471  1.0000
  O   O13       1.0  0.80985  0.52434  0.57898  1.0000
  O   O14       1.0  0.70266  0.52666  0.54002  1.0000
  O   O15       1.0  0.77245  0.45353  0.53124  1.0000
  O   O16       1.0  0.67384  0.45766  0.48412  1.0000
  N   N24       1.0  0.85975  0.52113  0.34485  1.0000
  C   C79       1.0  0.47203  0.29203  0.36081  1.0000
  C   C80       1.0  0.49014  0.27655  0.43413  1.0000
  C   C81       1.0  0.48817  0.23015  0.43113  1.0000
  N   N25       1.0  0.50725  0.30705  0.51131  1.0000
  N   N26       1.0  0.50857  0.21769  0.50459  1.0000
  O   O17       1.0  0.48030  0.28664  0.57819  1.0000
  O   O18       1.0  0.47832  0.17720  0.53980  1.0000
  O   O19       1.0  0.55122  0.32017  0.53095  1.0000
  O   O20       1.0  0.54743  0.21759  0.48442  1.0000
  N   N27       1.0  0.48388  0.33965  0.34388  1.0000
  C   C82       1.0  0.71275  0.18089  0.36198  1.0000
  C   C83       1.0  0.72861  0.21448  0.43534  1.0000
  C   C84       1.0  0.77503  0.25887  0.43186  1.0000
  N   N28       1.0  0.69847  0.20117  0.51298  1.0000
  N   N29       1.0  0.78787  0.29177  0.50536  1.0000
  O   O21       1.0  0.71914  0.19461  0.57944  1.0000
  O   O22       1.0  0.82842  0.30181  0.54005  1.0000
  O   O23       1.0  0.68551  0.23208  0.53310  1.0000
  O   O24       1.0  0.78814  0.33084  0.48543  1.0000
  N   N30       1.0  0.66506  0.14512  0.34559  1.0000
