data_image0
_chemical_formula_structural       C3O2H2NC3O2H2NCOHCNCNCNC3H3CNCNCNC3H3C3OHOHNC3OHOHNC2OHNC3O2H2NC3O2H2NCOHCNCNCNC3H3CNCNCNC3H3C3OHOHNC3OHOHNC2OHNC2OHNCOHC2OHNCOHCOHCHC2OHNCOHCHC2OHNOHCNCNCNCHOHOHCNCNCNCHOHC3O2H2NC3OHNC2OHNCHCNCNCNC3H3C3OHNC3OHOHNCOHC3O2H2NC3OHNC2OHNCHCNCNCNC3H3C3OHNC3OHOHNCOH
_chemical_formula_sum              "C120 O48 H72 N48"
_cell_length_a       45.1866
_cell_length_b       45.1865
_cell_length_c       14.5482
_cell_angle_alpha    90
_cell_angle_beta     90
_cell_angle_gamma    120

_space_group_name_H-M_alt    "P 1"
_space_group_IT_number       1

loop_
  _space_group_symop_operation_xyz
  'x, y, z'

loop_
  _atom_site_type_symbol
  _atom_site_label
  _atom_site_symmetry_multiplicity
  _atom_site_fract_x
  _atom_site_fract_y
  _atom_site_fract_z
  _atom_site_occupancy
  C   C1        1.0  0.29135  0.24669  0.36494  1.0000
  C   C2        1.0  0.30908  0.28286  0.36088  1.0000
  C   C3        1.0  0.29146  0.30146  0.36077  1.0000
  O   O1        1.0  0.34391  0.30053  0.35862  1.0000
  O   O2        1.0  0.31043  0.33612  0.35775  1.0000
  H   H1        1.0  0.35036  0.30304  0.29331  1.0000
  H   H2        1.0  0.31425  0.34231  0.29224  1.0000
  N   N1        1.0  0.31081  0.23131  0.36431  1.0000
  C   C4        1.0  0.29212  0.05242  0.36494  1.0000
  C   C5        1.0  0.25596  0.03399  0.36088  1.0000
  C   C6        1.0  0.23735  0.49776  0.36077  1.0000
  O   O3        1.0  0.23829  0.05114  0.35859  1.0000
  O   O4        1.0  0.20270  0.48208  0.35772  1.0000
  H   H3        1.0  0.23578  0.05509  0.29329  1.0000
  H   H4        1.0  0.19651  0.47971  0.29221  1.0000
  N   N2        1.0  0.30751  0.08726  0.36430  1.0000
  C   C7        1.0  0.04106  0.24736  0.36077  1.0000
  O   O5        1.0  0.05674  0.22838  0.35773  1.0000
  H   H5        1.0  0.05911  0.22457  0.29223  1.0000
  C   C8        1.0  0.19858  0.38270  0.36495  1.0000
  N   N3        1.0  0.16521  0.35729  0.36492  1.0000
  C   C9        1.0  0.15612  0.32364  0.36494  1.0000
  N   N4        1.0  0.18153  0.31569  0.36492  1.0000
  C   C10       1.0  0.21518  0.34024  0.36494  1.0000
  N   N5        1.0  0.22313  0.37360  0.36492  1.0000
  C   C11       1.0  0.24157  0.33226  0.36459  1.0000
  C   C12       1.0  0.20655  0.41707  0.36460  1.0000
  C   C13       1.0  0.12175  0.29725  0.36459  1.0000
  H   H6        1.0  0.11711  0.27273  0.36420  1.0000
  H   H7        1.0  0.18668  0.42171  0.36420  1.0000
  H   H8        1.0  0.26609  0.35214  0.36421  1.0000
  C   C14       1.0  0.34800  0.14835  0.36499  1.0000
  N   N6        1.0  0.38137  0.17377  0.36502  1.0000
  C   C15       1.0  0.39046  0.20741  0.36500  1.0000
  N   N7        1.0  0.36505  0.21536  0.36503  1.0000
  C   C16       1.0  0.33141  0.19082  0.36499  1.0000
  N   N8        1.0  0.32345  0.15745  0.36502  1.0000
  C   C17       1.0  0.30501  0.19879  0.36535  1.0000
  C   C18       1.0  0.34003  0.11399  0.36534  1.0000
  C   C19       1.0  0.42483  0.23381  0.36536  1.0000
  H   H9        1.0  0.42947  0.25832  0.36574  1.0000
  H   H10       1.0  0.35991  0.10935  0.36574  1.0000
  H   H11       1.0  0.28050  0.17891  0.36572  1.0000
  C   C20       1.0  0.25523  0.28436  0.36499  1.0000
  C   C21       1.0  0.23750  0.24820  0.36906  1.0000
  C   C22       1.0  0.25512  0.22959  0.36916  1.0000
  O   O6        1.0  0.23615  0.19493  0.37220  1.0000
  H   H12       1.0  0.23234  0.18875  0.43770  1.0000
  O   O7        1.0  0.20267  0.23052  0.37132  1.0000
  H   H13       1.0  0.19622  0.22802  0.43662  1.0000
  N   N9        1.0  0.23577  0.29974  0.36564  1.0000
  C   C23       1.0  0.25446  0.47864  0.36500  1.0000
  C   C24       1.0  0.29062  0.49707  0.36907  1.0000
  C   C25       1.0  0.30923  0.03330  0.36917  1.0000
  O   O8        1.0  0.34388  0.04897  0.37222  1.0000
  H   H14       1.0  0.35006  0.05135  0.43774  1.0000
  O   O9        1.0  0.30829  0.47991  0.37134  1.0000
  H   H15       1.0  0.31080  0.47597  0.43665  1.0000
  N   N10       1.0  0.23908  0.44379  0.36565  1.0000
  C   C26       1.0  0.06018  0.28359  0.36499  1.0000
  C   C27       1.0  0.04175  0.30131  0.36906  1.0000
  O   O10       1.0  0.05891  0.33615  0.37133  1.0000
  H   H16       1.0  0.06285  0.34260  0.43664  1.0000
  N   N11       1.0  0.09503  0.30305  0.36563  1.0000
  C   C28       1.0  0.29135  0.74670  0.36494  1.0000
  C   C29       1.0  0.30908  0.78285  0.36088  1.0000
  C   C30       1.0  0.29146  0.80147  0.36077  1.0000
  O   O11       1.0  0.34391  0.80053  0.35862  1.0000
  O   O12       1.0  0.31044  0.83612  0.35775  1.0000
  H   H17       1.0  0.35036  0.80304  0.29331  1.0000
  H   H18       1.0  0.31425  0.84231  0.29224  1.0000
  N   N12       1.0  0.31081  0.73132  0.36431  1.0000
  C   C31       1.0  0.29212  0.55242  0.36494  1.0000
  C   C32       1.0  0.25596  0.53399  0.36088  1.0000
  C   C33       1.0  0.23735  0.99776  0.36077  1.0000
  O   O13       1.0  0.23829  0.55114  0.35859  1.0000
  O   O14       1.0  0.20270  0.98208  0.35772  1.0000
  H   H19       1.0  0.23578  0.55509  0.29329  1.0000
  H   H20       1.0  0.19651  0.97971  0.29221  1.0000
  N   N13       1.0  0.30751  0.58726  0.36430  1.0000
  C   C34       1.0  0.04106  0.74736  0.36077  1.0000
  O   O15       1.0  0.05674  0.72838  0.35773  1.0000
  H   H21       1.0  0.05911  0.72457  0.29223  1.0000
  C   C35       1.0  0.19858  0.88270  0.36495  1.0000
  N   N14       1.0  0.16521  0.85729  0.36492  1.0000
  C   C36       1.0  0.15612  0.82364  0.36494  1.0000
  N   N15       1.0  0.18153  0.81569  0.36492  1.0000
  C   C37       1.0  0.21518  0.84024  0.36494  1.0000
  N   N16       1.0  0.22313  0.87360  0.36492  1.0000
  C   C38       1.0  0.24157  0.83227  0.36459  1.0000
  C   C39       1.0  0.20655  0.91707  0.36460  1.0000
  C   C40       1.0  0.12175  0.79725  0.36459  1.0000
  H   H22       1.0  0.11711  0.77273  0.36420  1.0000
  H   H23       1.0  0.18668  0.92171  0.36420  1.0000
  H   H24       1.0  0.26609  0.85214  0.36421  1.0000
  C   C41       1.0  0.34800  0.64836  0.36499  1.0000
  N   N17       1.0  0.38137  0.67377  0.36502  1.0000
  C   C42       1.0  0.39046  0.70741  0.36500  1.0000
  N   N18       1.0  0.36505  0.71536  0.36503  1.0000
  C   C43       1.0  0.33141  0.69082  0.36499  1.0000
  N   N19       1.0  0.32345  0.65745  0.36502  1.0000
  C   C44       1.0  0.30501  0.69879  0.36535  1.0000
  C   C45       1.0  0.34003  0.61399  0.36534  1.0000
  C   C46       1.0  0.42483  0.73381  0.36536  1.0000
  H   H25       1.0  0.42947  0.75832  0.36574  1.0000
  H   H26       1.0  0.35991  0.60935  0.36574  1.0000
  H   H27       1.0  0.28049  0.67891  0.36572  1.0000
  C   C47       1.0  0.25523  0.78436  0.36499  1.0000
  C   C48       1.0  0.23750  0.74820  0.36906  1.0000
  C   C49       1.0  0.25512  0.72959  0.36916  1.0000
  O   O16       1.0  0.23615  0.69494  0.37220  1.0000
  H   H28       1.0  0.23233  0.68875  0.43771  1.0000
  O   O17       1.0  0.20267  0.73052  0.37132  1.0000
  H   H29       1.0  0.19622  0.72802  0.43662  1.0000
  N   N20       1.0  0.23577  0.79974  0.36564  1.0000
  C   C50       1.0  0.25446  0.97864  0.36500  1.0000
  C   C51       1.0  0.29062  0.99707  0.36907  1.0000
  C   C52       1.0  0.30923  0.53330  0.36917  1.0000
  O   O18       1.0  0.34388  0.54898  0.37222  1.0000
  H   H30       1.0  0.35006  0.55135  0.43774  1.0000
  O   O19       1.0  0.30829  0.97991  0.37134  1.0000
  H   H31       1.0  0.31080  0.97597  0.43665  1.0000
  N   N21       1.0  0.23908  0.94379  0.36565  1.0000
  C   C53       1.0  0.06019  0.78359  0.36499  1.0000
  C   C54       1.0  0.04175  0.80131  0.36906  1.0000
  O   O20       1.0  0.05891  0.83615  0.37133  1.0000
  H   H32       1.0  0.06285  0.84260  0.43664  1.0000
  N   N22       1.0  0.09503  0.80305  0.36563  1.0000
  C   C55       1.0  0.48640  0.24747  0.36495  1.0000
  C   C56       1.0  0.50483  0.22974  0.36088  1.0000
  O   O21       1.0  0.48767  0.19491  0.35861  1.0000
  H   H33       1.0  0.48373  0.18846  0.29331  1.0000
  N   N23       1.0  0.45155  0.22801  0.36431  1.0000
  C   C57       1.0  0.50552  0.28369  0.36917  1.0000
  O   O22       1.0  0.48984  0.30267  0.37221  1.0000
  H   H34       1.0  0.48747  0.30648  0.43772  1.0000
  C   C58       1.0  0.48640  0.74747  0.36495  1.0000
  C   C59       1.0  0.50483  0.72974  0.36088  1.0000
  O   O23       1.0  0.48767  0.69491  0.35861  1.0000
  H   H35       1.0  0.48373  0.68846  0.29331  1.0000
  N   N24       1.0  0.45156  0.72801  0.36431  1.0000
  C   C60       1.0  0.50552  0.78369  0.36917  1.0000
  O   O24       1.0  0.48984  0.80267  0.37221  1.0000
  H   H36       1.0  0.48747  0.80648  0.43772  1.0000
  C   C61       1.0  0.54106  0.24736  0.36077  1.0000
  O   O25       1.0  0.55674  0.22838  0.35773  1.0000
  H   H37       1.0  0.55911  0.22457  0.29223  1.0000
  C   C62       1.0  0.62175  0.29725  0.36459  1.0000
  H   H38       1.0  0.61711  0.27273  0.36420  1.0000
  C   C63       1.0  0.56018  0.28359  0.36499  1.0000
  C   C64       1.0  0.54175  0.30131  0.36906  1.0000
  O   O26       1.0  0.55891  0.33615  0.37133  1.0000
  H   H39       1.0  0.56285  0.34260  0.43664  1.0000
  N   N25       1.0  0.59502  0.30305  0.36563  1.0000
  C   C65       1.0  0.54106  0.74736  0.36077  1.0000
  O   O27       1.0  0.55674  0.72838  0.35773  1.0000
  H   H40       1.0  0.55911  0.72457  0.29223  1.0000
  C   C66       1.0  0.62175  0.79725  0.36459  1.0000
  H   H41       1.0  0.61711  0.77273  0.36420  1.0000
  C   C67       1.0  0.56018  0.78359  0.36499  1.0000
  C   C68       1.0  0.54175  0.80131  0.36906  1.0000
  O   O28       1.0  0.55891  0.83615  0.37133  1.0000
  H   H42       1.0  0.56285  0.84260  0.43664  1.0000
  N   N26       1.0  0.59502  0.80305  0.36563  1.0000
  O   O29       1.0  0.70270  0.48208  0.35772  1.0000
  H   H43       1.0  0.69651  0.47971  0.29221  1.0000
  C   C69       1.0  0.69858  0.38270  0.36495  1.0000
  N   N27       1.0  0.66521  0.35729  0.36492  1.0000
  C   C70       1.0  0.65612  0.32364  0.36494  1.0000
  N   N28       1.0  0.68153  0.31569  0.36492  1.0000
  C   C71       1.0  0.71517  0.34024  0.36494  1.0000
  N   N29       1.0  0.72313  0.37360  0.36492  1.0000
  C   C72       1.0  0.70655  0.41707  0.36460  1.0000
  H   H44       1.0  0.68668  0.42171  0.36420  1.0000
  O   O30       1.0  0.70267  0.23052  0.37132  1.0000
  H   H45       1.0  0.69622  0.22802  0.43662  1.0000
  O   O31       1.0  0.70270  0.98208  0.35772  1.0000
  H   H46       1.0  0.69651  0.97971  0.29221  1.0000
  C   C73       1.0  0.69858  0.88270  0.36495  1.0000
  N   N30       1.0  0.66521  0.85729  0.36492  1.0000
  C   C74       1.0  0.65612  0.82364  0.36494  1.0000
  N   N31       1.0  0.68153  0.81569  0.36492  1.0000
  C   C75       1.0  0.71518  0.84024  0.36494  1.0000
  N   N32       1.0  0.72313  0.87360  0.36492  1.0000
  C   C76       1.0  0.70655  0.91707  0.36460  1.0000
  H   H47       1.0  0.68668  0.92171  0.36420  1.0000
  O   O32       1.0  0.70267  0.73052  0.37132  1.0000
  H   H48       1.0  0.69622  0.72802  0.43662  1.0000
  C   C77       1.0  0.79135  0.24669  0.36494  1.0000
  C   C78       1.0  0.80908  0.28286  0.36088  1.0000
  C   C79       1.0  0.79146  0.30146  0.36077  1.0000
  O   O33       1.0  0.84391  0.30053  0.35862  1.0000
  O   O34       1.0  0.81043  0.33612  0.35775  1.0000
  H   H49       1.0  0.85036  0.30304  0.29331  1.0000
  H   H50       1.0  0.81425  0.34231  0.29224  1.0000
  N   N33       1.0  0.81081  0.23131  0.36431  1.0000
  C   C80       1.0  0.79212  0.05242  0.36494  1.0000
  C   C81       1.0  0.75596  0.03399  0.36088  1.0000
  C   C82       1.0  0.73735  0.49776  0.36077  1.0000
  O   O35       1.0  0.73829  0.05114  0.35859  1.0000
  H   H51       1.0  0.73578  0.05509  0.29329  1.0000
  N   N34       1.0  0.80750  0.08726  0.36430  1.0000
  C   C83       1.0  0.98640  0.24747  0.36495  1.0000
  C   C84       1.0  0.00483  0.22974  0.36088  1.0000
  O   O36       1.0  0.98767  0.19491  0.35861  1.0000
  H   H52       1.0  0.98373  0.18846  0.29331  1.0000
  N   N35       1.0  0.95156  0.22801  0.36431  1.0000
  C   C85       1.0  0.74157  0.33226  0.36459  1.0000
  H   H53       1.0  0.76609  0.35214  0.36421  1.0000
  C   C86       1.0  0.84800  0.14835  0.36499  1.0000
  N   N36       1.0  0.88137  0.17377  0.36502  1.0000
  C   C87       1.0  0.89046  0.20741  0.36500  1.0000
  N   N37       1.0  0.86505  0.21536  0.36503  1.0000
  C   C88       1.0  0.83140  0.19082  0.36499  1.0000
  N   N38       1.0  0.82345  0.15745  0.36502  1.0000
  C   C89       1.0  0.80501  0.19879  0.36535  1.0000
  C   C90       1.0  0.84003  0.11399  0.36534  1.0000
  C   C91       1.0  0.92483  0.23381  0.36536  1.0000
  H   H54       1.0  0.92947  0.25832  0.36574  1.0000
  H   H55       1.0  0.85991  0.10935  0.36574  1.0000
  H   H56       1.0  0.78049  0.17891  0.36572  1.0000
  C   C92       1.0  0.75523  0.28436  0.36499  1.0000
  C   C93       1.0  0.73750  0.24820  0.36906  1.0000
  C   C94       1.0  0.75512  0.22959  0.36916  1.0000
  O   O37       1.0  0.73615  0.19493  0.37220  1.0000
  H   H57       1.0  0.73233  0.18875  0.43770  1.0000
  N   N39       1.0  0.73577  0.29974  0.36564  1.0000
  C   C95       1.0  0.75446  0.47864  0.36500  1.0000
  C   C96       1.0  0.79062  0.49707  0.36907  1.0000
  C   C97       1.0  0.80923  0.03330  0.36917  1.0000
  O   O38       1.0  0.84388  0.04897  0.37222  1.0000
  H   H58       1.0  0.85006  0.05135  0.43774  1.0000
  O   O39       1.0  0.80829  0.47991  0.37134  1.0000
  H   H59       1.0  0.81080  0.47597  0.43665  1.0000
  N   N40       1.0  0.73908  0.44379  0.36565  1.0000
  C   C98       1.0  0.00552  0.28369  0.36917  1.0000
  O   O40       1.0  0.98984  0.30267  0.37221  1.0000
  H   H60       1.0  0.98747  0.30648  0.43772  1.0000
  C   C99       1.0  0.79135  0.74670  0.36494  1.0000
  C   C100      1.0  0.80907  0.78285  0.36088  1.0000
  C   C101      1.0  0.79146  0.80147  0.36077  1.0000
  O   O41       1.0  0.84391  0.80053  0.35862  1.0000
  O   O42       1.0  0.81044  0.83612  0.35775  1.0000
  H   H61       1.0  0.85036  0.80304  0.29331  1.0000
  H   H62       1.0  0.81425  0.84231  0.29224  1.0000
  N   N41       1.0  0.81081  0.73132  0.36431  1.0000
  C   C102      1.0  0.79212  0.55242  0.36494  1.0000
  C   C103      1.0  0.75596  0.53399  0.36088  1.0000
  C   C104      1.0  0.73735  0.99776  0.36077  1.0000
  O   O43       1.0  0.73829  0.55114  0.35859  1.0000
  H   H63       1.0  0.73578  0.55509  0.29329  1.0000
  N   N42       1.0  0.80750  0.58726  0.36430  1.0000
  C   C105      1.0  0.98640  0.74747  0.36495  1.0000
  C   C106      1.0  0.00483  0.72974  0.36088  1.0000
  O   O44       1.0  0.98767  0.69491  0.35861  1.0000
  H   H64       1.0  0.98373  0.68846  0.29331  1.0000
  N   N43       1.0  0.95156  0.72801  0.36431  1.0000
  C   C107      1.0  0.74157  0.83227  0.36459  1.0000
  H   H65       1.0  0.76609  0.85214  0.36421  1.0000
  C   C108      1.0  0.84800  0.64836  0.36499  1.0000
  N   N44       1.0  0.88137  0.67377  0.36502  1.0000
  C   C109      1.0  0.89046  0.70741  0.36500  1.0000
  N   N45       1.0  0.86505  0.71536  0.36503  1.0000
  C   C110      1.0  0.83141  0.69082  0.36499  1.0000
  N   N46       1.0  0.82345  0.65745  0.36502  1.0000
  C   C111      1.0  0.80501  0.69879  0.36535  1.0000
  C   C112      1.0  0.84003  0.61399  0.36534  1.0000
  C   C113      1.0  0.92483  0.73381  0.36536  1.0000
  H   H66       1.0  0.92947  0.75832  0.36574  1.0000
  H   H67       1.0  0.85990  0.60935  0.36574  1.0000
  H   H68       1.0  0.78049  0.67891  0.36572  1.0000
  C   C114      1.0  0.75523  0.78436  0.36499  1.0000
  C   C115      1.0  0.73750  0.74820  0.36906  1.0000
  C   C116      1.0  0.75512  0.72959  0.36916  1.0000
  O   O45       1.0  0.73615  0.69494  0.37220  1.0000
  H   H69       1.0  0.73233  0.68875  0.43771  1.0000
  N   N47       1.0  0.73577  0.79974  0.36564  1.0000
  C   C117      1.0  0.75446  0.97864  0.36500  1.0000
  C   C118      1.0  0.79062  0.99707  0.36907  1.0000
  C   C119      1.0  0.80923  0.53330  0.36917  1.0000
  O   O46       1.0  0.84388  0.54898  0.37222  1.0000
  H   H70       1.0  0.85006  0.55135  0.43774  1.0000
  O   O47       1.0  0.80829  0.97991  0.37134  1.0000
  H   H71       1.0  0.81080  0.97597  0.43665  1.0000
  N   N48       1.0  0.73908  0.94379  0.36565  1.0000
  C   C120      1.0  0.00552  0.78369  0.36917  1.0000
  O   O48       1.0  0.98984  0.80267  0.37221  1.0000
  H   H72       1.0  0.98747  0.80648  0.43772  1.0000
