data_image0
_chemical_formula_structural       C2OCNHC4H2CH2C3H2CH2C2HCH2NC18H12NHNHNHNC18H12NHNHNHC3NC2NHOHCH2C3NC2NHOHCH2CNCH2CH2
_chemical_formula_sum              "C66 O3 N14 H54"
_cell_length_a       32.5725
_cell_length_b       32.5737
_cell_length_c       14.9462
_cell_angle_alpha    90
_cell_angle_beta     90
_cell_angle_gamma    119.999

_space_group_name_H-M_alt    "P 1"
_space_group_IT_number       1

loop_
  _space_group_symop_operation_xyz
  'x, y, z'

loop_
  _atom_site_type_symbol
  _atom_site_label
  _atom_site_symmetry_multiplicity
  _atom_site_fract_x
  _atom_site_fract_y
  _atom_site_fract_z
  _atom_site_occupancy
  C   C1        1.0  0.01891  0.52658  0.43424  1.0000
  C   C2        1.0  0.00331  0.54744  0.57967  1.0000
  O   O1        1.0  0.01952  0.56926  0.65948  1.0000
  C   C3        1.0  0.03090  0.50143  0.28765  1.0000
  N   N1        1.0  0.03369  0.54868  0.51582  1.0000
  H   H1        1.0  0.05187  0.49975  0.23873  1.0000
  C   C4        1.0  0.05073  0.52762  0.36719  1.0000
  C   C5        1.0  0.52737  0.47348  0.32105  1.0000
  C   C6        1.0  0.52729  0.50573  0.25820  1.0000
  C   C7        1.0  0.50315  0.53053  0.27529  1.0000
  H   H2        1.0  0.50455  0.55333  0.22697  1.0000
  H   H3        1.0  0.54452  0.51113  0.19836  1.0000
  C   C8        1.0  0.55066  0.44517  0.29904  1.0000
  H   H4        1.0  0.56331  0.45114  0.22980  1.0000
  H   H5        1.0  0.52385  0.40764  0.30480  1.0000
  C   C9        1.0  0.53183  0.05450  0.32674  1.0000
  C   C10       1.0  0.50097  0.02244  0.26199  1.0000
  C   C11       1.0  0.47557  0.97346  0.27852  1.0000
  H   H6        1.0  0.45384  0.95229  0.22878  1.0000
  H   H7        1.0  0.49706  0.03449  0.20113  1.0000
  C   C12       1.0  0.56087  0.10614  0.30541  1.0000
  H   H8        1.0  0.55671  0.11293  0.23520  1.0000
  H   H9        1.0  0.59818  0.11672  0.31495  1.0000
  C   C13       1.0  0.95009  0.47801  0.33522  1.0000
  C   C14       1.0  0.98188  0.47766  0.27161  1.0000
  H   H10       1.0  0.96961  0.46046  0.21185  1.0000
  C   C15       1.0  0.89845  0.45536  0.31385  1.0000
  H   H11       1.0  0.89163  0.44338  0.24421  1.0000
  H   H12       1.0  0.88809  0.48238  0.32102  1.0000
  N   N2        1.0  0.33620  0.66829  0.34130  1.0000
  C   C16       1.0  0.36203  0.64382  0.33297  1.0000
  C   C17       1.0  0.28581  0.64236  0.33512  1.0000
  C   C18       1.0  0.36059  0.71862  0.33352  1.0000
  C   C19       1.0  0.39049  0.74157  0.25980  1.0000
  C   C20       1.0  0.41326  0.79114  0.25082  1.0000
  C   C21       1.0  0.40587  0.81940  0.31368  1.0000
  C   C22       1.0  0.37489  0.79596  0.38614  1.0000
  C   C23       1.0  0.35345  0.74649  0.39712  1.0000
  C   C24       1.0  0.35472  0.61385  0.25919  1.0000
  C   C25       1.0  0.38159  0.59120  0.24932  1.0000
  C   C26       1.0  0.41757  0.59872  0.31146  1.0000
  C   C27       1.0  0.42537  0.62964  0.38412  1.0000
  C   C28       1.0  0.39737  0.65107  0.39585  1.0000
  C   C29       1.0  0.25848  0.60769  0.39964  1.0000
  C   C30       1.0  0.20890  0.57972  0.39027  1.0000
  C   C31       1.0  0.18491  0.58693  0.31841  1.0000
  C   C32       1.0  0.21263  0.62227  0.25465  1.0000
  C   C33       1.0  0.26227  0.64909  0.26218  1.0000
  H   H13       1.0  0.37564  0.57016  0.19450  1.0000
  H   H14       1.0  0.32997  0.60867  0.21170  1.0000
  H   H15       1.0  0.40406  0.67349  0.44872  1.0000
  H   H16       1.0  0.45202  0.63727  0.42876  1.0000
  H   H17       1.0  0.39560  0.72220  0.21179  1.0000
  H   H18       1.0  0.43427  0.80642  0.19603  1.0000
  H   H19       1.0  0.27485  0.60144  0.45197  1.0000
  H   H20       1.0  0.19041  0.55352  0.43601  1.0000
  H   H21       1.0  0.19689  0.62780  0.20038  1.0000
  H   H22       1.0  0.28126  0.67339  0.21363  1.0000
  H   H23       1.0  0.33109  0.73057  0.44998  1.0000
  H   H24       1.0  0.36729  0.81478  0.43129  1.0000
  N   N3        1.0  0.44779  0.57909  0.29742  1.0000
  H   H25       1.0  0.43840  0.56016  0.23876  1.0000
  N   N4        1.0  0.42569  0.86935  0.30032  1.0000
  H   H26       1.0  0.44553  0.87916  0.24275  1.0000
  N   N5        1.0  0.13489  0.55668  0.30654  1.0000
  H   H27       1.0  0.12468  0.56586  0.24844  1.0000
  N   N6        1.0  0.66932  0.33505  0.35163  1.0000
  C   C34       1.0  0.64892  0.36463  0.35224  1.0000
  C   C35       1.0  0.71925  0.35545  0.35608  1.0000
  C   C36       1.0  0.63972  0.28509  0.35338  1.0000
  C   C37       1.0  0.63639  0.25896  0.43110  1.0000
  C   C38       1.0  0.60634  0.20943  0.43309  1.0000
  C   C39       1.0  0.57919  0.18504  0.35741  1.0000
  C   C40       1.0  0.58253  0.21124  0.27958  1.0000
  C   C41       1.0  0.61261  0.26077  0.27755  1.0000
  C   C42       1.0  0.65350  0.39290  0.27717  1.0000
  C   C43       1.0  0.63418  0.42311  0.27838  1.0000
  C   C44       1.0  0.60970  0.42543  0.35462  1.0000
  C   C45       1.0  0.60510  0.39708  0.42950  1.0000
  C   C46       1.0  0.62444  0.36689  0.42833  1.0000
  C   C47       1.0  0.74445  0.37944  0.43385  1.0000
  C   C48       1.0  0.79397  0.39913  0.43840  1.0000
  C   C49       1.0  0.81927  0.39534  0.36532  1.0000
  C   C50       1.0  0.79398  0.37117  0.28756  1.0000
  C   C51       1.0  0.74449  0.35159  0.28289  1.0000
  H   H28       1.0  0.63850  0.44385  0.22385  1.0000
  H   H29       1.0  0.67130  0.39189  0.22161  1.0000
  H   H30       1.0  0.62109  0.34696  0.48362  1.0000
  H   H31       1.0  0.58787  0.39854  0.48559  1.0000
  H   H32       1.0  0.65551  0.27601  0.48689  1.0000
  H   H33       1.0  0.60413  0.19118  0.49028  1.0000
  H   H34       1.0  0.72673  0.38231  0.48779  1.0000
  H   H35       1.0  0.81153  0.41612  0.49555  1.0000
  H   H36       1.0  0.81152  0.36742  0.23426  1.0000
  H   H37       1.0  0.72683  0.33418  0.22614  1.0000
  H   H38       1.0  0.61442  0.27914  0.22078  1.0000
  H   H39       1.0  0.56267  0.19437  0.22440  1.0000
  N   N7        1.0  0.59090  0.45630  0.36015  1.0000
  H   H40       1.0  0.61774  0.49054  0.35012  1.0000
  N   N8        1.0  0.54846  0.13536  0.36354  1.0000
  H   H41       1.0  0.51436  0.12770  0.35073  1.0000
  N   N9        1.0  0.86894  0.41470  0.37385  1.0000
  H   H42       1.0  0.87688  0.38821  0.36427  1.0000
  C   C52       1.0  0.47707  0.52362  0.35519  1.0000
  C   C53       1.0  0.47838  0.49258  0.42132  1.0000
  C   C54       1.0  0.50353  0.46796  0.40331  1.0000
  N   N10       1.0  0.50411  0.43842  0.46697  1.0000
  C   C55       1.0  0.48247  0.43126  0.54724  1.0000
  C   C56       1.0  0.45783  0.45528  0.56606  1.0000
  N   N11       1.0  0.45630  0.48464  0.50306  1.0000
  H   H43       1.0  0.48427  0.40881  0.59273  1.0000
  O   O2        1.0  0.43602  0.44905  0.64606  1.0000
  H   H44       1.0  0.43881  0.50052  0.51896  1.0000
  C   C57       1.0  0.44821  0.54746  0.36932  1.0000
  H   H45       1.0  0.46170  0.56875  0.43001  1.0000
  H   H46       1.0  0.41152  0.51966  0.38146  1.0000
  C   C58       1.0  0.48051  0.95396  0.35980  1.0000
  C   C59       1.0  0.51009  0.98606  0.42774  1.0000
  C   C60       1.0  0.53528  0.03589  0.41027  1.0000
  N   N12       1.0  0.56333  0.06576  0.47573  1.0000
  C   C61       1.0  0.56848  0.05099  0.55728  1.0000
  C   C62       1.0  0.54390  0.00227  0.57556  1.0000
  N   N13       1.0  0.51602  0.97161  0.51080  1.0000
  H   H47       1.0  0.58986  0.07505  0.60409  1.0000
  O   O3        1.0  0.54812  0.98639  0.65681  1.0000
  H   H48       1.0  0.49971  0.93819  0.52637  1.0000
  C   C63       1.0  0.45617  0.90120  0.37359  1.0000
  H   H49       1.0  0.43376  0.89338  0.43270  1.0000
  H   H50       1.0  0.48358  0.89210  0.38836  1.0000
  C   C64       1.0  0.96902  0.50174  0.41732  1.0000
  N   N14       1.0  0.93942  0.50145  0.48181  1.0000
  C   C65       1.0  0.95453  0.52310  0.56193  1.0000
  H   H51       1.0  0.93067  0.52154  0.60809  1.0000
  H   H52       1.0  0.06718  0.56594  0.53098  1.0000
  C   C66       1.0  0.10356  0.55639  0.37980  1.0000
  H   H53       1.0  0.11185  0.54290  0.43992  1.0000
  H   H54       1.0  0.11264  0.59311  0.39225  1.0000
