data_image0
_chemical_formula_structural       C2NHCHC2NHCH3C3HC2HC2OC3HC2HC2OCHCHC2NCHC3HCHCHC2NCHC3HC3NH3C6N2H4C6N2H4C5H2CHC4H2C4H2C4H2C3H2C3H2C3H2C3H2C3H2OC2NOCHNC2NOCHC2NOCHC2NOCHC3NH3C6N2H4C6N2H4C5H2CHC4H2C4H2C4H2C3H2C3H2C3H2C3H2C3H2OC2NOCHNC2NOCHC2NOCHC2NOCHC6N2H3C6N2H4C6N2H4C4H2C4H2C4H2C4H2C4H2C4H2C3H2C3H2C3H2C3H2C3H2C3H2C2NOCHC2NOCHC2NOCHC2NOCHC2NOCHC2NOCHC6N2H3C6N2H4C6N2H4C4H2C4H2C4H2C4H2C4H2C4H2C3H2C3H2C3H2C3H2C3H2C3H2C2NOCHC2NOCHC2NOCHC2NOCHC2NOCHC2NOCH
_chemical_formula_sum              "C312 N48 H168 O24"
_cell_length_a       46.3434
_cell_length_b       46.3434
_cell_length_c       14.9072
_cell_angle_alpha    90
_cell_angle_beta     90
_cell_angle_gamma    120

_space_group_name_H-M_alt    "P 1"
_space_group_IT_number       1

loop_
  _space_group_symop_operation_xyz
  'x, y, z'

loop_
  _atom_site_type_symbol
  _atom_site_label
  _atom_site_symmetry_multiplicity
  _atom_site_fract_x
  _atom_site_fract_y
  _atom_site_fract_z
  _atom_site_occupancy
  C   C1        1.0  0.02280  0.26242  0.30230  1.0000
  C   C2        1.0  0.04284  0.29834  0.29515  1.0000
  N   N1        1.0  0.03161  0.31585  0.24745  1.0000
  H   H1        1.0  0.04355  0.33997  0.24456  1.0000
  C   C3        1.0  0.04085  0.24573  0.32379  1.0000
  H   H2        1.0  0.02903  0.22062  0.33275  1.0000
  C   C4        1.0  0.02280  0.76242  0.30230  1.0000
  C   C5        1.0  0.04284  0.79834  0.29515  1.0000
  N   N2        1.0  0.03161  0.81585  0.24745  1.0000
  H   H3        1.0  0.04355  0.83997  0.24456  1.0000
  C   C6        1.0  0.04085  0.74574  0.32379  1.0000
  H   H4        1.0  0.02903  0.72062  0.33275  1.0000
  H   H5        1.0  0.01310  0.30453  0.20579  1.0000
  H   H6        1.0  0.01310  0.80453  0.20579  1.0000
  C   C7        1.0  0.07518  0.31589  0.33607  1.0000
  C   C8        1.0  0.09417  0.24681  0.35458  1.0000
  C   C9        1.0  0.10462  0.23845  0.27400  1.0000
  H   H7        1.0  0.09271  0.23734  0.21511  1.0000
  C   C10       1.0  0.09650  0.35104  0.34459  1.0000
  C   C11       1.0  0.10986  0.37218  0.26868  1.0000
  H   H8        1.0  0.10083  0.36312  0.20606  1.0000
  C   C12       1.0  0.09030  0.29704  0.36054  1.0000
  C   C13       1.0  0.07465  0.26245  0.34854  1.0000
  O   O1        1.0  0.10673  0.34705  0.50661  1.0000
  C   C14       1.0  0.07518  0.81589  0.33607  1.0000
  C   C15       1.0  0.09417  0.74681  0.35458  1.0000
  C   C16       1.0  0.10462  0.73845  0.27400  1.0000
  H   H9        1.0  0.09271  0.73734  0.21511  1.0000
  C   C17       1.0  0.09651  0.85104  0.34459  1.0000
  C   C18       1.0  0.10986  0.87218  0.26868  1.0000
  H   H10       1.0  0.10083  0.86312  0.20606  1.0000
  C   C19       1.0  0.09030  0.79704  0.36054  1.0000
  C   C20       1.0  0.07464  0.76245  0.34854  1.0000
  O   O2        1.0  0.10673  0.84705  0.50661  1.0000
  C   C21       1.0  0.13555  0.23920  0.26857  1.0000
  H   H11       1.0  0.14454  0.23909  0.20594  1.0000
  C   C22       1.0  0.14004  0.40309  0.27410  1.0000
  H   H12       1.0  0.11513  0.30932  0.37744  1.0000
  C   C23       1.0  0.14407  0.25146  0.42682  1.0000
  C   C24       1.0  0.11468  0.25266  0.43022  1.0000
  N   N3        1.0  0.11274  0.26342  0.51165  1.0000
  C   C25       1.0  0.13982  0.26779  0.55577  1.0000
  H   H13       1.0  0.14514  0.27675  0.61986  1.0000
  C   C26       1.0  0.11345  0.36385  0.42708  1.0000
  C   C27       1.0  0.14402  0.39326  0.43042  1.0000
  C   C28       1.0  0.13401  0.36821  0.55610  1.0000
  H   H14       1.0  0.13765  0.36294  0.62025  1.0000
  C   C29       1.0  0.13555  0.73920  0.26857  1.0000
  H   H15       1.0  0.14454  0.73909  0.20594  1.0000
  C   C30       1.0  0.14005  0.90309  0.27410  1.0000
  H   H16       1.0  0.11513  0.80932  0.37744  1.0000
  C   C31       1.0  0.14407  0.75145  0.42682  1.0000
  C   C32       1.0  0.11468  0.75266  0.43022  1.0000
  N   N4        1.0  0.11274  0.76342  0.51165  1.0000
  C   C33       1.0  0.13982  0.76779  0.55577  1.0000
  H   H17       1.0  0.14514  0.77675  0.61986  1.0000
  C   C34       1.0  0.11345  0.86385  0.42708  1.0000
  C   C35       1.0  0.14402  0.89326  0.43042  1.0000
  C   C36       1.0  0.13401  0.86821  0.55610  1.0000
  H   H18       1.0  0.13765  0.86294  0.62025  1.0000
  C   C37       1.0  0.48655  0.24380  0.30238  1.0000
  C   C38       1.0  0.43402  0.19037  0.33554  1.0000
  C   C39       1.0  0.46647  0.20788  0.29518  1.0000
  N   N5        1.0  0.47776  0.19033  0.24789  1.0000
  H   H19       1.0  0.99620  0.20163  0.20606  1.0000
  H   H20       1.0  0.46563  0.16622  0.24458  1.0000
  H   H21       1.0  0.51310  0.30453  0.20579  1.0000
  C   C40       1.0  0.26398  0.24429  0.30275  1.0000
  C   C41       1.0  0.31742  0.24515  0.33527  1.0000
  C   C42       1.0  0.29989  0.26011  0.29519  1.0000
  C   C43       1.0  0.24537  0.26193  0.30269  1.0000
  C   C44       1.0  0.20946  0.24610  0.29524  1.0000
  C   C45       1.0  0.19193  0.26100  0.33560  1.0000
  N   N6        1.0  0.31741  0.28896  0.24787  1.0000
  N   N7        1.0  0.19194  0.21730  0.24776  1.0000
  H   H22       1.0  0.30607  0.29611  0.20621  1.0000
  H   H23       1.0  0.34152  0.30090  0.24429  1.0000
  H   H24       1.0  0.16783  0.20517  0.24467  1.0000
  H   H25       1.0  0.20327  0.21004  0.20632  1.0000
  C   C46       1.0  0.26351  0.02123  0.30245  1.0000
  C   C47       1.0  0.26262  0.07377  0.33530  1.0000
  C   C48       1.0  0.24768  0.04131  0.29503  1.0000
  C   C49       1.0  0.24586  0.48499  0.30265  1.0000
  C   C50       1.0  0.26167  0.46488  0.29519  1.0000
  C   C51       1.0  0.24668  0.43239  0.33533  1.0000
  N   N8        1.0  0.21886  0.03001  0.24762  1.0000
  N   N9        1.0  0.29052  0.47618  0.24793  1.0000
  H   H26       1.0  0.21171  0.51150  0.20598  1.0000
  H   H27       1.0  0.20686  0.04211  0.24407  1.0000
  H   H28       1.0  0.30244  0.46400  0.24429  1.0000
  H   H29       1.0  0.29763  0.99463  0.20612  1.0000
  C   C52       1.0  0.15679  0.24717  0.34435  1.0000
  C   C53       1.0  0.26051  0.41109  0.34422  1.0000
  C   C54       1.0  0.26115  0.34901  0.35459  1.0000
  C   C55       1.0  0.26909  0.36760  0.27367  1.0000
  C   C56       1.0  0.26825  0.39772  0.26823  1.0000
  H   H30       1.0  0.26832  0.40686  0.20568  1.0000
  H   H31       1.0  0.27014  0.35680  0.21468  1.0000
  C   C57       1.0  0.15877  0.41377  0.35486  1.0000
  H   H32       1.0  0.15088  0.41493  0.21513  1.0000
  C   C58       1.0  0.35255  0.25900  0.34426  1.0000
  C   C59       1.0  0.41524  0.25955  0.35445  1.0000
  C   C60       1.0  0.40464  0.26760  0.27366  1.0000
  C   C61       1.0  0.37368  0.26676  0.26827  1.0000
  H   H33       1.0  0.36462  0.26686  0.20573  1.0000
  H   H34       1.0  0.41649  0.26866  0.21466  1.0000
  C   C62       1.0  0.24871  0.09501  0.34416  1.0000
  C   C63       1.0  0.24817  0.15722  0.35482  1.0000
  C   C64       1.0  0.24010  0.13853  0.27400  1.0000
  C   C65       1.0  0.24088  0.10838  0.26838  1.0000
  H   H35       1.0  0.24090  0.09938  0.20571  1.0000
  H   H36       1.0  0.23907  0.14939  0.21510  1.0000
  C   C66       1.0  0.41270  0.15523  0.34438  1.0000
  C   C67       1.0  0.35058  0.09253  0.35458  1.0000
  C   C68       1.0  0.36920  0.10318  0.27372  1.0000
  C   C69       1.0  0.39934  0.13414  0.26834  1.0000
  H   H37       1.0  0.40850  0.14323  0.20581  1.0000
  H   H38       1.0  0.35842  0.09135  0.21469  1.0000
  C   C70       1.0  0.46853  0.26052  0.32391  1.0000
  C   C71       1.0  0.43472  0.24386  0.34844  1.0000
  C   C72       1.0  0.41900  0.20927  0.36047  1.0000
  H   H39       1.0  0.48037  0.28565  0.33259  1.0000
  H   H40       1.0  0.39415  0.19701  0.37712  1.0000
  C   C73       1.0  0.24724  0.20957  0.32442  1.0000
  C   C74       1.0  0.26391  0.19237  0.34838  1.0000
  C   C75       1.0  0.29853  0.21120  0.35987  1.0000
  H   H41       1.0  0.22212  0.19633  0.33338  1.0000
  H   H42       1.0  0.31079  0.19861  0.37661  1.0000
  C   C76       1.0  0.21080  0.29499  0.35985  1.0000
  C   C77       1.0  0.24541  0.31384  0.34820  1.0000
  C   C78       1.0  0.26210  0.29666  0.32436  1.0000
  H   H43       1.0  0.19855  0.30760  0.37649  1.0000
  H   H44       1.0  0.28722  0.30991  0.33330  1.0000
  C   C79       1.0  0.29826  0.03924  0.32391  1.0000
  C   C80       1.0  0.31542  0.07309  0.34816  1.0000
  C   C81       1.0  0.29655  0.08883  0.36000  1.0000
  H   H45       1.0  0.31150  0.02738  0.33316  1.0000
  H   H46       1.0  0.30915  0.11368  0.37670  1.0000
  C   C82       1.0  0.21274  0.41736  0.36001  1.0000
  C   C83       1.0  0.19392  0.43314  0.34830  1.0000
  C   C84       1.0  0.21113  0.46700  0.32431  1.0000
  H   H47       1.0  0.20015  0.39250  0.37669  1.0000
  H   H48       1.0  0.19789  0.47889  0.33318  1.0000
  O   O3        1.0  0.16093  0.26162  0.50623  1.0000
  C   C85       1.0  0.25633  0.39414  0.42672  1.0000
  C   C86       1.0  0.25542  0.36370  0.43028  1.0000
  N   N10       1.0  0.24485  0.35108  0.51189  1.0000
  O   O4        1.0  0.24642  0.40099  0.50632  1.0000
  C   C87       1.0  0.24054  0.37383  0.55607  1.0000
  H   H49       1.0  0.23152  0.37013  0.62009  1.0000
  N   N11       1.0  0.15672  0.39526  0.51190  1.0000
  C   C88       1.0  0.36532  0.25478  0.42668  1.0000
  C   C89       1.0  0.39484  0.25384  0.43022  1.0000
  N   N12       1.0  0.39689  0.24329  0.51186  1.0000
  O   O5        1.0  0.34858  0.24489  0.50629  1.0000
  C   C90       1.0  0.36985  0.23901  0.55605  1.0000
  H   H50       1.0  0.36453  0.23000  0.62008  1.0000
  C   C91       1.0  0.25287  0.11191  0.42673  1.0000
  C   C92       1.0  0.25398  0.14245  0.43026  1.0000
  N   N13       1.0  0.26470  0.15513  0.51175  1.0000
  O   O6        1.0  0.26300  0.10518  0.50615  1.0000
  C   C93       1.0  0.26910  0.13242  0.55579  1.0000
  H   H51       1.0  0.27803  0.13604  0.61991  1.0000
  C   C94       1.0  0.39573  0.14244  0.42684  1.0000
  C   C95       1.0  0.36527  0.11292  0.43032  1.0000
  N   N14       1.0  0.35265  0.11085  0.51194  1.0000
  O   O7        1.0  0.40258  0.15916  0.50650  1.0000
  C   C96       1.0  0.37540  0.13787  0.55619  1.0000
  H   H52       1.0  0.37170  0.14318  0.62023  1.0000
  C   C97       1.0  0.48655  0.74380  0.30238  1.0000
  C   C98       1.0  0.43402  0.69037  0.33554  1.0000
  C   C99       1.0  0.46647  0.70787  0.29518  1.0000
  N   N15       1.0  0.47776  0.69033  0.24789  1.0000
  H   H53       1.0  0.99620  0.70164  0.20606  1.0000
  H   H54       1.0  0.46563  0.66622  0.24458  1.0000
  H   H55       1.0  0.51310  0.80453  0.20579  1.0000
  C   C100      1.0  0.26398  0.74429  0.30275  1.0000
  C   C101      1.0  0.31742  0.74514  0.33527  1.0000
  C   C102      1.0  0.29989  0.76012  0.29519  1.0000
  C   C103      1.0  0.24537  0.76193  0.30269  1.0000
  C   C104      1.0  0.20946  0.74610  0.29524  1.0000
  C   C105      1.0  0.19193  0.76101  0.33560  1.0000
  N   N16       1.0  0.31741  0.78896  0.24787  1.0000
  N   N17       1.0  0.19195  0.71730  0.24776  1.0000
  H   H56       1.0  0.30607  0.79611  0.20621  1.0000
  H   H57       1.0  0.34152  0.80090  0.24429  1.0000
  H   H58       1.0  0.16783  0.70517  0.24467  1.0000
  H   H59       1.0  0.20327  0.71004  0.20632  1.0000
  C   C106      1.0  0.26351  0.52123  0.30245  1.0000
  C   C107      1.0  0.26262  0.57377  0.33530  1.0000
  C   C108      1.0  0.24768  0.54131  0.29503  1.0000
  C   C109      1.0  0.24586  0.98498  0.30265  1.0000
  C   C110      1.0  0.26167  0.96488  0.29519  1.0000
  C   C111      1.0  0.24668  0.93239  0.33533  1.0000
  N   N18       1.0  0.21886  0.53001  0.24762  1.0000
  N   N19       1.0  0.29052  0.97618  0.24793  1.0000
  H   H60       1.0  0.21171  0.01150  0.20598  1.0000
  H   H61       1.0  0.20686  0.54211  0.24407  1.0000
  H   H62       1.0  0.30244  0.96400  0.24429  1.0000
  H   H63       1.0  0.29763  0.49463  0.20612  1.0000
  C   C112      1.0  0.15679  0.74717  0.34435  1.0000
  C   C113      1.0  0.26051  0.91109  0.34422  1.0000
  C   C114      1.0  0.26115  0.84901  0.35459  1.0000
  C   C115      1.0  0.26909  0.86760  0.27367  1.0000
  C   C116      1.0  0.26825  0.89772  0.26823  1.0000
  H   H64       1.0  0.26832  0.90686  0.20568  1.0000
  H   H65       1.0  0.27015  0.85680  0.21468  1.0000
  C   C117      1.0  0.15877  0.91377  0.35486  1.0000
  H   H66       1.0  0.15089  0.91493  0.21513  1.0000
  C   C118      1.0  0.35254  0.75900  0.34426  1.0000
  C   C119      1.0  0.41524  0.75955  0.35445  1.0000
  C   C120      1.0  0.40464  0.76760  0.27366  1.0000
  C   C121      1.0  0.37368  0.76676  0.26827  1.0000
  H   H67       1.0  0.36462  0.76686  0.20573  1.0000
  H   H68       1.0  0.41649  0.76867  0.21466  1.0000
  C   C122      1.0  0.24871  0.59501  0.34416  1.0000
  C   C123      1.0  0.24817  0.65722  0.35482  1.0000
  C   C124      1.0  0.24010  0.63854  0.27400  1.0000
  C   C125      1.0  0.24088  0.60838  0.26838  1.0000
  H   H69       1.0  0.24090  0.59938  0.20571  1.0000
  H   H70       1.0  0.23907  0.64939  0.21510  1.0000
  C   C126      1.0  0.41270  0.65523  0.34438  1.0000
  C   C127      1.0  0.35058  0.59252  0.35458  1.0000
  C   C128      1.0  0.36920  0.60318  0.27372  1.0000
  C   C129      1.0  0.39934  0.63414  0.26834  1.0000
  H   H71       1.0  0.40850  0.64323  0.20581  1.0000
  H   H72       1.0  0.35842  0.59135  0.21469  1.0000
  C   C130      1.0  0.46853  0.76052  0.32391  1.0000
  C   C131      1.0  0.43473  0.74386  0.34844  1.0000
  C   C132      1.0  0.41900  0.70927  0.36047  1.0000
  H   H73       1.0  0.48037  0.78565  0.33259  1.0000
  H   H74       1.0  0.39415  0.69701  0.37712  1.0000
  C   C133      1.0  0.24724  0.70957  0.32442  1.0000
  C   C134      1.0  0.26392  0.69237  0.34838  1.0000
  C   C135      1.0  0.29853  0.71120  0.35987  1.0000
  H   H75       1.0  0.22212  0.69633  0.33338  1.0000
  H   H76       1.0  0.31079  0.69861  0.37661  1.0000
  C   C136      1.0  0.21080  0.79499  0.35985  1.0000
  C   C137      1.0  0.24541  0.81385  0.34820  1.0000
  C   C138      1.0  0.26210  0.79666  0.32436  1.0000
  H   H77       1.0  0.19855  0.80760  0.37649  1.0000
  H   H78       1.0  0.28722  0.80991  0.33330  1.0000
  C   C139      1.0  0.29826  0.53924  0.32391  1.0000
  C   C140      1.0  0.31542  0.57309  0.34816  1.0000
  C   C141      1.0  0.29655  0.58883  0.36000  1.0000
  H   H79       1.0  0.31150  0.52738  0.33316  1.0000
  H   H80       1.0  0.30915  0.61368  0.37670  1.0000
  C   C142      1.0  0.21274  0.91736  0.36001  1.0000
  C   C143      1.0  0.19392  0.93314  0.34830  1.0000
  C   C144      1.0  0.21113  0.96701  0.32431  1.0000
  H   H81       1.0  0.20015  0.89250  0.37669  1.0000
  H   H82       1.0  0.19789  0.97889  0.33318  1.0000
  O   O8        1.0  0.16093  0.76162  0.50623  1.0000
  C   C145      1.0  0.25633  0.89414  0.42672  1.0000
  C   C146      1.0  0.25542  0.86370  0.43028  1.0000
  N   N20       1.0  0.24485  0.85108  0.51189  1.0000
  O   O9        1.0  0.24642  0.90099  0.50632  1.0000
  C   C147      1.0  0.24054  0.87383  0.55607  1.0000
  H   H83       1.0  0.23152  0.87013  0.62009  1.0000
  N   N21       1.0  0.15672  0.89526  0.51190  1.0000
  C   C148      1.0  0.36533  0.75478  0.42668  1.0000
  C   C149      1.0  0.39484  0.75384  0.43022  1.0000
  N   N22       1.0  0.39689  0.74329  0.51186  1.0000
  O   O10       1.0  0.34858  0.74489  0.50629  1.0000
  C   C150      1.0  0.36985  0.73901  0.55605  1.0000
  H   H84       1.0  0.36453  0.72999  0.62008  1.0000
  C   C151      1.0  0.25287  0.61191  0.42673  1.0000
  C   C152      1.0  0.25398  0.64245  0.43026  1.0000
  N   N23       1.0  0.26470  0.65513  0.51175  1.0000
  O   O11       1.0  0.26300  0.60518  0.50615  1.0000
  C   C153      1.0  0.26910  0.63243  0.55579  1.0000
  H   H85       1.0  0.27803  0.63604  0.61991  1.0000
  C   C154      1.0  0.39573  0.64244  0.42684  1.0000
  C   C155      1.0  0.36527  0.61292  0.43032  1.0000
  N   N24       1.0  0.35265  0.61085  0.51194  1.0000
  O   O12       1.0  0.40258  0.65916  0.50650  1.0000
  C   C156      1.0  0.37540  0.63787  0.55619  1.0000
  H   H86       1.0  0.37171  0.64318  0.62023  1.0000
  C   C157      1.0  0.98655  0.24380  0.30238  1.0000
  C   C158      1.0  0.93402  0.19037  0.33554  1.0000
  C   C159      1.0  0.96647  0.20788  0.29518  1.0000
  C   C160      1.0  0.52280  0.26242  0.30230  1.0000
  C   C161      1.0  0.54284  0.29834  0.29515  1.0000
  C   C162      1.0  0.57518  0.31589  0.33607  1.0000
  N   N25       1.0  0.97776  0.19033  0.24789  1.0000
  N   N26       1.0  0.53161  0.31585  0.24745  1.0000
  H   H87       1.0  0.49620  0.20163  0.20606  1.0000
  H   H88       1.0  0.96563  0.16622  0.24458  1.0000
  H   H89       1.0  0.54355  0.33997  0.24456  1.0000
  C   C163      1.0  0.76398  0.24429  0.30275  1.0000
  C   C164      1.0  0.81742  0.24515  0.33527  1.0000
  C   C165      1.0  0.79989  0.26011  0.29519  1.0000
  C   C166      1.0  0.74537  0.26193  0.30269  1.0000
  C   C167      1.0  0.70946  0.24610  0.29524  1.0000
  C   C168      1.0  0.69193  0.26100  0.33560  1.0000
  N   N27       1.0  0.81741  0.28896  0.24787  1.0000
  N   N28       1.0  0.69194  0.21730  0.24776  1.0000
  H   H90       1.0  0.80607  0.29611  0.20621  1.0000
  H   H91       1.0  0.84152  0.30090  0.24429  1.0000
  H   H92       1.0  0.66783  0.20517  0.24467  1.0000
  H   H93       1.0  0.70327  0.21004  0.20632  1.0000
  C   C169      1.0  0.76351  0.02123  0.30245  1.0000
  C   C170      1.0  0.76262  0.07377  0.33530  1.0000
  C   C171      1.0  0.74768  0.04131  0.29503  1.0000
  C   C172      1.0  0.74586  0.48499  0.30265  1.0000
  C   C173      1.0  0.76167  0.46488  0.29519  1.0000
  C   C174      1.0  0.74668  0.43239  0.33533  1.0000
  N   N29       1.0  0.71886  0.03001  0.24762  1.0000
  N   N30       1.0  0.79052  0.47618  0.24793  1.0000
  H   H94       1.0  0.71171  0.51150  0.20598  1.0000
  H   H95       1.0  0.70686  0.04211  0.24407  1.0000
  H   H96       1.0  0.80244  0.46400  0.24429  1.0000
  H   H97       1.0  0.79763  0.99463  0.20612  1.0000
  C   C175      1.0  0.65679  0.24717  0.34435  1.0000
  C   C176      1.0  0.59417  0.24681  0.35458  1.0000
  C   C177      1.0  0.60462  0.23845  0.27400  1.0000
  C   C178      1.0  0.63555  0.23920  0.26857  1.0000
  H   H98       1.0  0.64454  0.23909  0.20594  1.0000
  H   H99       1.0  0.59271  0.23734  0.21511  1.0000
  C   C179      1.0  0.76051  0.41109  0.34422  1.0000
  C   C180      1.0  0.76115  0.34901  0.35459  1.0000
  C   C181      1.0  0.76909  0.36760  0.27367  1.0000
  C   C182      1.0  0.76825  0.39772  0.26823  1.0000
  H   H100      1.0  0.76832  0.40686  0.20568  1.0000
  H   H101      1.0  0.77014  0.35680  0.21468  1.0000
  C   C183      1.0  0.59650  0.35104  0.34459  1.0000
  C   C184      1.0  0.65877  0.41377  0.35486  1.0000
  C   C185      1.0  0.64004  0.40309  0.27410  1.0000
  C   C186      1.0  0.60986  0.37218  0.26868  1.0000
  H   H102      1.0  0.60083  0.36312  0.20606  1.0000
  H   H103      1.0  0.65088  0.41493  0.21513  1.0000
  C   C187      1.0  0.85255  0.25900  0.34426  1.0000
  C   C188      1.0  0.91524  0.25955  0.35445  1.0000
  C   C189      1.0  0.90465  0.26760  0.27366  1.0000
  C   C190      1.0  0.87368  0.26676  0.26827  1.0000
  H   H104      1.0  0.86462  0.26686  0.20573  1.0000
  H   H105      1.0  0.91649  0.26866  0.21466  1.0000
  C   C191      1.0  0.74871  0.09501  0.34416  1.0000
  C   C192      1.0  0.74817  0.15722  0.35482  1.0000
  C   C193      1.0  0.74010  0.13853  0.27400  1.0000
  C   C194      1.0  0.74088  0.10838  0.26838  1.0000
  H   H106      1.0  0.74090  0.09938  0.20571  1.0000
  H   H107      1.0  0.73907  0.14939  0.21510  1.0000
  C   C195      1.0  0.91270  0.15523  0.34438  1.0000
  C   C196      1.0  0.85058  0.09253  0.35458  1.0000
  C   C197      1.0  0.86920  0.10318  0.27372  1.0000
  C   C198      1.0  0.89934  0.13414  0.26834  1.0000
  H   H108      1.0  0.90850  0.14323  0.20581  1.0000
  H   H109      1.0  0.85842  0.09135  0.21469  1.0000
  C   C199      1.0  0.96853  0.26052  0.32391  1.0000
  C   C200      1.0  0.93472  0.24386  0.34844  1.0000
  C   C201      1.0  0.91900  0.20927  0.36047  1.0000
  H   H110      1.0  0.98037  0.28565  0.33259  1.0000
  H   H111      1.0  0.89415  0.19701  0.37712  1.0000
  C   C202      1.0  0.59030  0.29704  0.36054  1.0000
  C   C203      1.0  0.57465  0.26245  0.34854  1.0000
  C   C204      1.0  0.54085  0.24573  0.32379  1.0000
  H   H112      1.0  0.61513  0.30932  0.37744  1.0000
  H   H113      1.0  0.52903  0.22062  0.33275  1.0000
  C   C205      1.0  0.74724  0.20957  0.32442  1.0000
  C   C206      1.0  0.76391  0.19237  0.34838  1.0000
  C   C207      1.0  0.79853  0.21120  0.35987  1.0000
  H   H114      1.0  0.72212  0.19633  0.33338  1.0000
  H   H115      1.0  0.81079  0.19861  0.37661  1.0000
  C   C208      1.0  0.71080  0.29499  0.35985  1.0000
  C   C209      1.0  0.74541  0.31384  0.34820  1.0000
  C   C210      1.0  0.76210  0.29666  0.32436  1.0000
  H   H116      1.0  0.69855  0.30760  0.37649  1.0000
  H   H117      1.0  0.78722  0.30991  0.33330  1.0000
  C   C211      1.0  0.79826  0.03924  0.32391  1.0000
  C   C212      1.0  0.81542  0.07309  0.34816  1.0000
  C   C213      1.0  0.79655  0.08883  0.36000  1.0000
  H   H118      1.0  0.81150  0.02738  0.33316  1.0000
  H   H119      1.0  0.80915  0.11368  0.37670  1.0000
  C   C214      1.0  0.71274  0.41736  0.36001  1.0000
  C   C215      1.0  0.69392  0.43314  0.34830  1.0000
  C   C216      1.0  0.71113  0.46700  0.32431  1.0000
  H   H120      1.0  0.70015  0.39250  0.37669  1.0000
  H   H121      1.0  0.69789  0.47889  0.33318  1.0000
  C   C217      1.0  0.64407  0.25146  0.42682  1.0000
  C   C218      1.0  0.61468  0.25266  0.43022  1.0000
  N   N31       1.0  0.61274  0.26342  0.51165  1.0000
  O   O13       1.0  0.66093  0.26162  0.50623  1.0000
  C   C219      1.0  0.63982  0.26779  0.55577  1.0000
  H   H122      1.0  0.64514  0.27675  0.61986  1.0000
  C   C220      1.0  0.75633  0.39414  0.42672  1.0000
  C   C221      1.0  0.75542  0.36370  0.43028  1.0000
  N   N32       1.0  0.74485  0.35108  0.51189  1.0000
  O   O14       1.0  0.74642  0.40099  0.50632  1.0000
  C   C222      1.0  0.74054  0.37383  0.55607  1.0000
  H   H123      1.0  0.73151  0.37013  0.62009  1.0000
  C   C223      1.0  0.61345  0.36385  0.42708  1.0000
  C   C224      1.0  0.64402  0.39326  0.43042  1.0000
  N   N33       1.0  0.65672  0.39526  0.51190  1.0000
  O   O15       1.0  0.60673  0.34705  0.50661  1.0000
  C   C225      1.0  0.63401  0.36821  0.55610  1.0000
  H   H124      1.0  0.63765  0.36294  0.62025  1.0000
  C   C226      1.0  0.86532  0.25478  0.42668  1.0000
  C   C227      1.0  0.89484  0.25384  0.43022  1.0000
  N   N34       1.0  0.89689  0.24329  0.51186  1.0000
  O   O16       1.0  0.84858  0.24489  0.50629  1.0000
  C   C228      1.0  0.86986  0.23901  0.55605  1.0000
  H   H125      1.0  0.86453  0.23000  0.62008  1.0000
  C   C229      1.0  0.75287  0.11191  0.42673  1.0000
  C   C230      1.0  0.75398  0.14245  0.43026  1.0000
  N   N35       1.0  0.76470  0.15513  0.51175  1.0000
  O   O17       1.0  0.76300  0.10518  0.50615  1.0000
  C   C231      1.0  0.76910  0.13242  0.55579  1.0000
  H   H126      1.0  0.77803  0.13604  0.61991  1.0000
  C   C232      1.0  0.89573  0.14244  0.42684  1.0000
  C   C233      1.0  0.86527  0.11292  0.43032  1.0000
  N   N36       1.0  0.85265  0.11085  0.51194  1.0000
  O   O18       1.0  0.90258  0.15916  0.50650  1.0000
  C   C234      1.0  0.87540  0.13787  0.55619  1.0000
  H   H127      1.0  0.87170  0.14318  0.62023  1.0000
  C   C235      1.0  0.98655  0.74380  0.30238  1.0000
  C   C236      1.0  0.93402  0.69037  0.33554  1.0000
  C   C237      1.0  0.96647  0.70787  0.29518  1.0000
  C   C238      1.0  0.52280  0.76242  0.30230  1.0000
  C   C239      1.0  0.54284  0.79834  0.29515  1.0000
  C   C240      1.0  0.57518  0.81589  0.33607  1.0000
  N   N37       1.0  0.97776  0.69033  0.24789  1.0000
  N   N38       1.0  0.53161  0.81585  0.24745  1.0000
  H   H128      1.0  0.49620  0.70164  0.20606  1.0000
  H   H129      1.0  0.96563  0.66622  0.24458  1.0000
  H   H130      1.0  0.54355  0.83997  0.24456  1.0000
  C   C241      1.0  0.76398  0.74429  0.30275  1.0000
  C   C242      1.0  0.81741  0.74514  0.33527  1.0000
  C   C243      1.0  0.79989  0.76012  0.29519  1.0000
  C   C244      1.0  0.74537  0.76193  0.30269  1.0000
  C   C245      1.0  0.70946  0.74610  0.29524  1.0000
  C   C246      1.0  0.69193  0.76101  0.33560  1.0000
  N   N39       1.0  0.81741  0.78896  0.24787  1.0000
  N   N40       1.0  0.69195  0.71730  0.24776  1.0000
  H   H131      1.0  0.80607  0.79611  0.20621  1.0000
  H   H132      1.0  0.84152  0.80090  0.24429  1.0000
  H   H133      1.0  0.66783  0.70517  0.24467  1.0000
  H   H134      1.0  0.70327  0.71004  0.20632  1.0000
  C   C247      1.0  0.76351  0.52123  0.30245  1.0000
  C   C248      1.0  0.76262  0.57377  0.33530  1.0000
  C   C249      1.0  0.74768  0.54131  0.29503  1.0000
  C   C250      1.0  0.74586  0.98498  0.30265  1.0000
  C   C251      1.0  0.76167  0.96488  0.29519  1.0000
  C   C252      1.0  0.74668  0.93239  0.33533  1.0000
  N   N41       1.0  0.71886  0.53001  0.24762  1.0000
  N   N42       1.0  0.79052  0.97618  0.24793  1.0000
  H   H135      1.0  0.71171  0.01150  0.20598  1.0000
  H   H136      1.0  0.70686  0.54211  0.24407  1.0000
  H   H137      1.0  0.80244  0.96400  0.24429  1.0000
  H   H138      1.0  0.79763  0.49463  0.20612  1.0000
  C   C253      1.0  0.65679  0.74717  0.34435  1.0000
  C   C254      1.0  0.59417  0.74681  0.35458  1.0000
  C   C255      1.0  0.60462  0.73845  0.27400  1.0000
  C   C256      1.0  0.63555  0.73920  0.26857  1.0000
  H   H139      1.0  0.64454  0.73909  0.20594  1.0000
  H   H140      1.0  0.59271  0.73734  0.21511  1.0000
  C   C257      1.0  0.76051  0.91109  0.34422  1.0000
  C   C258      1.0  0.76115  0.84901  0.35459  1.0000
  C   C259      1.0  0.76909  0.86760  0.27367  1.0000
  C   C260      1.0  0.76825  0.89772  0.26823  1.0000
  H   H141      1.0  0.76832  0.90686  0.20568  1.0000
  H   H142      1.0  0.77014  0.85680  0.21468  1.0000
  C   C261      1.0  0.59650  0.85104  0.34459  1.0000
  C   C262      1.0  0.65877  0.91377  0.35486  1.0000
  C   C263      1.0  0.64004  0.90309  0.27410  1.0000
  C   C264      1.0  0.60986  0.87218  0.26868  1.0000
  H   H143      1.0  0.60083  0.86312  0.20606  1.0000
  H   H144      1.0  0.65089  0.91493  0.21513  1.0000
  C   C265      1.0  0.85254  0.75900  0.34426  1.0000
  C   C266      1.0  0.91524  0.75955  0.35445  1.0000
  C   C267      1.0  0.90464  0.76760  0.27366  1.0000
  C   C268      1.0  0.87368  0.76676  0.26827  1.0000
  H   H145      1.0  0.86461  0.76686  0.20573  1.0000
  H   H146      1.0  0.91649  0.76867  0.21466  1.0000
  C   C269      1.0  0.74871  0.59501  0.34416  1.0000
  C   C270      1.0  0.74817  0.65722  0.35482  1.0000
  C   C271      1.0  0.74010  0.63854  0.27400  1.0000
  C   C272      1.0  0.74088  0.60838  0.26838  1.0000
  H   H147      1.0  0.74090  0.59938  0.20571  1.0000
  H   H148      1.0  0.73907  0.64939  0.21510  1.0000
  C   C273      1.0  0.91270  0.65523  0.34438  1.0000
  C   C274      1.0  0.85058  0.59252  0.35458  1.0000
  C   C275      1.0  0.86920  0.60318  0.27372  1.0000
  C   C276      1.0  0.89934  0.63414  0.26834  1.0000
  H   H149      1.0  0.90850  0.64323  0.20581  1.0000
  H   H150      1.0  0.85842  0.59135  0.21469  1.0000
  C   C277      1.0  0.96854  0.76052  0.32391  1.0000
  C   C278      1.0  0.93473  0.74386  0.34844  1.0000
  C   C279      1.0  0.91900  0.70927  0.36047  1.0000
  H   H151      1.0  0.98037  0.78565  0.33259  1.0000
  H   H152      1.0  0.89415  0.69701  0.37712  1.0000
  C   C280      1.0  0.59030  0.79704  0.36054  1.0000
  C   C281      1.0  0.57465  0.76245  0.34854  1.0000
  C   C282      1.0  0.54085  0.74574  0.32379  1.0000
  H   H153      1.0  0.61513  0.80932  0.37744  1.0000
  H   H154      1.0  0.52903  0.72062  0.33275  1.0000
  C   C283      1.0  0.74725  0.70957  0.32442  1.0000
  C   C284      1.0  0.76391  0.69237  0.34838  1.0000
  C   C285      1.0  0.79853  0.71120  0.35987  1.0000
  H   H155      1.0  0.72212  0.69633  0.33338  1.0000
  H   H156      1.0  0.81079  0.69861  0.37661  1.0000
  C   C286      1.0  0.71080  0.79499  0.35985  1.0000
  C   C287      1.0  0.74541  0.81385  0.34820  1.0000
  C   C288      1.0  0.76210  0.79666  0.32436  1.0000
  H   H157      1.0  0.69855  0.80760  0.37649  1.0000
  H   H158      1.0  0.78722  0.80991  0.33330  1.0000
  C   C289      1.0  0.79826  0.53924  0.32391  1.0000
  C   C290      1.0  0.81542  0.57309  0.34816  1.0000
  C   C291      1.0  0.79655  0.58883  0.36000  1.0000
  H   H159      1.0  0.81150  0.52738  0.33316  1.0000
  H   H160      1.0  0.80915  0.61368  0.37670  1.0000
  C   C292      1.0  0.71274  0.91736  0.36001  1.0000
  C   C293      1.0  0.69392  0.93314  0.34830  1.0000
  C   C294      1.0  0.71113  0.96701  0.32431  1.0000
  H   H161      1.0  0.70015  0.89250  0.37669  1.0000
  H   H162      1.0  0.69789  0.97889  0.33318  1.0000
  C   C295      1.0  0.64407  0.75145  0.42682  1.0000
  C   C296      1.0  0.61468  0.75266  0.43022  1.0000
  N   N43       1.0  0.61274  0.76342  0.51165  1.0000
  O   O19       1.0  0.66093  0.76162  0.50623  1.0000
  C   C297      1.0  0.63982  0.76779  0.55577  1.0000
  H   H163      1.0  0.64514  0.77675  0.61986  1.0000
  C   C298      1.0  0.75633  0.89414  0.42672  1.0000
  C   C299      1.0  0.75542  0.86370  0.43028  1.0000
  N   N44       1.0  0.74485  0.85108  0.51189  1.0000
  O   O20       1.0  0.74642  0.90099  0.50632  1.0000
  C   C300      1.0  0.74054  0.87383  0.55607  1.0000
  H   H164      1.0  0.73152  0.87013  0.62009  1.0000
  C   C301      1.0  0.61345  0.86385  0.42708  1.0000
  C   C302      1.0  0.64402  0.89326  0.43042  1.0000
  N   N45       1.0  0.65672  0.89526  0.51190  1.0000
  O   O21       1.0  0.60673  0.84705  0.50661  1.0000
  C   C303      1.0  0.63401  0.86821  0.55610  1.0000
  H   H165      1.0  0.63765  0.86294  0.62025  1.0000
  C   C304      1.0  0.86533  0.75478  0.42668  1.0000
  C   C305      1.0  0.89484  0.75384  0.43022  1.0000
  N   N46       1.0  0.89689  0.74329  0.51186  1.0000
  O   O22       1.0  0.84858  0.74489  0.50629  1.0000
  C   C306      1.0  0.86985  0.73901  0.55605  1.0000
  H   H166      1.0  0.86453  0.72999  0.62008  1.0000
  C   C307      1.0  0.75287  0.61191  0.42673  1.0000
  C   C308      1.0  0.75398  0.64245  0.43026  1.0000
  N   N47       1.0  0.76470  0.65513  0.51175  1.0000
  O   O23       1.0  0.76300  0.60518  0.50615  1.0000
  C   C309      1.0  0.76910  0.63243  0.55579  1.0000
  H   H167      1.0  0.77803  0.63604  0.61991  1.0000
  C   C310      1.0  0.89573  0.64244  0.42684  1.0000
  C   C311      1.0  0.86528  0.61292  0.43032  1.0000
  N   N48       1.0  0.85265  0.61085  0.51194  1.0000
  O   O24       1.0  0.90258  0.65916  0.50650  1.0000
  C   C312      1.0  0.87540  0.63787  0.55619  1.0000
  H   H168      1.0  0.87170  0.64318  0.62023  1.0000
