data_image0
_chemical_formula_structural       C4NC4NH4N2C3HOHCHC3HOHCHC2HC2H3N2C3H2CHC3H2CHC4NC4NH4N2C3HOHCHC3HOHCHC2HC2H3N2C3H2CHC3H2CHC4NC4NH4N2C3HOHCHC3HOHCHC2HC2H3N2C3H2CHC3H2CHC4NC4NH4N2C3HOHCHC3HOHCHC2HC2H3N2C3H2CHC3H2CH
_chemical_formula_sum              "C112 N24 H80 O8"
_cell_length_a       31.4706
_cell_length_b       31.4706
_cell_length_c       14.9629
_cell_angle_alpha    90
_cell_angle_beta     90
_cell_angle_gamma    90

_space_group_name_H-M_alt    "P 1"
_space_group_IT_number       1

loop_
  _space_group_symop_operation_xyz
  'x, y, z'

loop_
  _atom_site_type_symbol
  _atom_site_label
  _atom_site_symmetry_multiplicity
  _atom_site_fract_x
  _atom_site_fract_y
  _atom_site_fract_z
  _atom_site_occupancy
  C   C1        1.0  0.01604  0.48651  0.32921  1.0000
  C   C2        1.0  0.08140  0.42099  0.31804  1.0000
  C   C3        1.0  0.09250  0.46462  0.32079  1.0000
  C   C4        1.0  0.06038  0.49597  0.32571  1.0000
  N   N1        1.0  0.11201  0.39030  0.31060  1.0000
  C   C5        1.0  0.48352  0.01901  0.33315  1.0000
  C   C6        1.0  0.43915  0.00956  0.33247  1.0000
  C   C7        1.0  0.40694  0.04082  0.33785  1.0000
  C   C8        1.0  0.41799  0.08439  0.34403  1.0000
  N   N2        1.0  0.38729  0.11500  0.35134  1.0000
  H   H1        1.0  0.35731  0.10810  0.35481  1.0000
  H   H2        1.0  0.14192  0.39715  0.30467  1.0000
  H   H3        1.0  0.07073  0.02648  0.32621  1.0000
  H   H4        1.0  0.42889  0.47915  0.32663  1.0000
  N   N3        1.0  0.36500  0.03101  0.33544  1.0000
  N   N4        1.0  0.13446  0.47442  0.32049  1.0000
  C   C9        1.0  0.00333  0.20701  0.33604  1.0000
  C   C10       1.0  0.04024  0.23262  0.32833  1.0000
  C   C11       1.0  0.03701  0.27732  0.32768  1.0000
  H   H5        1.0  0.06445  0.29450  0.32278  1.0000
  O   O1        1.0  0.07986  0.21531  0.32358  1.0000
  H   H6        1.0  0.08576  0.21100  0.25968  1.0000
  C   C12       1.0  0.00642  0.16218  0.33723  1.0000
  H   H7        1.0  0.03546  0.14783  0.33260  1.0000
  C   C13       1.0  0.29547  0.99921  0.32720  1.0000
  C   C14       1.0  0.26986  0.96230  0.31932  1.0000
  C   C15       1.0  0.22515  0.96553  0.31880  1.0000
  H   H8        1.0  0.20797  0.93809  0.31400  1.0000
  O   O2        1.0  0.28717  0.92268  0.31483  1.0000
  H   H9        1.0  0.29162  0.91675  0.25098  1.0000
  C   C16       1.0  0.34029  0.99609  0.32908  1.0000
  H   H10       1.0  0.35466  0.96706  0.32468  1.0000
  C   C17       1.0  0.00657  0.44213  0.32978  1.0000
  C   C18       1.0  0.03783  0.40995  0.32424  1.0000
  H   H11       1.0  0.47616  0.43181  0.33557  1.0000
  C   C19       1.0  0.46163  0.09550  0.34132  1.0000
  C   C20       1.0  0.49297  0.06335  0.33658  1.0000
  H   H12       1.0  0.02349  0.07365  0.33613  1.0000
  H   H13       1.0  0.39415  0.14491  0.35726  1.0000
  H   H14       1.0  0.10512  0.36032  0.30711  1.0000
  N   N5        1.0  0.47144  0.13746  0.34120  1.0000
  N   N6        1.0  0.02804  0.36800  0.32621  1.0000
  C   C21       1.0  0.99721  0.29822  0.33315  1.0000
  C   C22       1.0  0.96051  0.27261  0.34011  1.0000
  C   C23       1.0  0.96353  0.22802  0.34161  1.0000
  H   H15       1.0  0.93593  0.21112  0.34703  1.0000
  H   H16       1.0  0.93102  0.28622  0.34443  1.0000
  C   C24       1.0  0.99337  0.34295  0.33220  1.0000
  H   H17       1.0  0.96405  0.35679  0.33673  1.0000
  C   C25       1.0  0.20426  0.00533  0.32430  1.0000
  C   C26       1.0  0.22987  0.04204  0.33094  1.0000
  C   C27       1.0  0.27446  0.03901  0.33258  1.0000
  H   H18       1.0  0.29135  0.06661  0.33797  1.0000
  H   H19       1.0  0.21627  0.07153  0.33534  1.0000
  C   C28       1.0  0.15953  0.00915  0.32408  1.0000
  H   H20       1.0  0.14571  0.03848  0.32869  1.0000
  C   C29       1.0  0.01604  0.98650  0.32921  1.0000
  C   C30       1.0  0.08140  0.92099  0.31804  1.0000
  C   C31       1.0  0.09250  0.96462  0.32079  1.0000
  C   C32       1.0  0.06038  0.99597  0.32571  1.0000
  N   N7        1.0  0.11201  0.89029  0.31060  1.0000
  C   C33       1.0  0.48352  0.51901  0.33315  1.0000
  C   C34       1.0  0.43915  0.50956  0.33247  1.0000
  C   C35       1.0  0.40694  0.54082  0.33785  1.0000
  C   C36       1.0  0.41799  0.58439  0.34403  1.0000
  N   N8        1.0  0.38729  0.61500  0.35134  1.0000
  H   H21       1.0  0.35731  0.60810  0.35481  1.0000
  H   H22       1.0  0.14192  0.89714  0.30467  1.0000
  H   H23       1.0  0.07073  0.52648  0.32621  1.0000
  H   H24       1.0  0.42889  0.97915  0.32663  1.0000
  N   N9        1.0  0.36500  0.53101  0.33544  1.0000
  N   N10       1.0  0.13446  0.97442  0.32049  1.0000
  C   C37       1.0  0.00333  0.70701  0.33604  1.0000
  C   C38       1.0  0.04024  0.73262  0.32833  1.0000
  C   C39       1.0  0.03701  0.77732  0.32768  1.0000
  H   H25       1.0  0.06445  0.79450  0.32278  1.0000
  O   O3        1.0  0.07986  0.71531  0.32358  1.0000
  H   H26       1.0  0.08576  0.71100  0.25968  1.0000
  C   C40       1.0  0.00642  0.66218  0.33723  1.0000
  H   H27       1.0  0.03546  0.64783  0.33260  1.0000
  C   C41       1.0  0.29547  0.49921  0.32720  1.0000
  C   C42       1.0  0.26986  0.46230  0.31932  1.0000
  C   C43       1.0  0.22515  0.46553  0.31880  1.0000
  H   H28       1.0  0.20797  0.43809  0.31400  1.0000
  O   O4        1.0  0.28717  0.42268  0.31483  1.0000
  H   H29       1.0  0.29162  0.41675  0.25098  1.0000
  C   C44       1.0  0.34029  0.49610  0.32908  1.0000
  H   H30       1.0  0.35466  0.46706  0.32468  1.0000
  C   C45       1.0  0.00657  0.94213  0.32978  1.0000
  C   C46       1.0  0.03783  0.90995  0.32424  1.0000
  H   H31       1.0  0.47616  0.93181  0.33557  1.0000
  C   C47       1.0  0.46163  0.59550  0.34132  1.0000
  C   C48       1.0  0.49297  0.56335  0.33658  1.0000
  H   H32       1.0  0.02349  0.57365  0.33613  1.0000
  H   H33       1.0  0.39415  0.64491  0.35726  1.0000
  H   H34       1.0  0.10512  0.86032  0.30711  1.0000
  N   N11       1.0  0.47144  0.63746  0.34120  1.0000
  N   N12       1.0  0.02804  0.86800  0.32621  1.0000
  C   C49       1.0  0.99721  0.79822  0.33315  1.0000
  C   C50       1.0  0.96051  0.77261  0.34011  1.0000
  C   C51       1.0  0.96353  0.72802  0.34161  1.0000
  H   H35       1.0  0.93593  0.71113  0.34703  1.0000
  H   H36       1.0  0.93102  0.78622  0.34443  1.0000
  C   C52       1.0  0.99337  0.84294  0.33220  1.0000
  H   H37       1.0  0.96405  0.85679  0.33673  1.0000
  C   C53       1.0  0.20426  0.50533  0.32430  1.0000
  C   C54       1.0  0.22987  0.54204  0.33094  1.0000
  C   C55       1.0  0.27446  0.53901  0.33258  1.0000
  H   H38       1.0  0.29135  0.56661  0.33797  1.0000
  H   H39       1.0  0.21627  0.57153  0.33534  1.0000
  C   C56       1.0  0.15953  0.50915  0.32408  1.0000
  H   H40       1.0  0.14571  0.53848  0.32869  1.0000
  C   C57       1.0  0.51603  0.48651  0.32921  1.0000
  C   C58       1.0  0.58140  0.42099  0.31804  1.0000
  C   C59       1.0  0.59250  0.46462  0.32079  1.0000
  C   C60       1.0  0.56038  0.49597  0.32571  1.0000
  N   N13       1.0  0.61201  0.39030  0.31060  1.0000
  C   C61       1.0  0.98352  0.01901  0.33315  1.0000
  C   C62       1.0  0.93915  0.00956  0.33247  1.0000
  C   C63       1.0  0.90694  0.04082  0.33785  1.0000
  C   C64       1.0  0.91799  0.08439  0.34403  1.0000
  N   N14       1.0  0.88729  0.11500  0.35134  1.0000
  H   H41       1.0  0.85731  0.10810  0.35481  1.0000
  H   H42       1.0  0.64192  0.39715  0.30467  1.0000
  H   H43       1.0  0.57073  0.02648  0.32621  1.0000
  H   H44       1.0  0.92889  0.47915  0.32663  1.0000
  N   N15       1.0  0.86499  0.03101  0.33544  1.0000
  N   N16       1.0  0.63446  0.47442  0.32049  1.0000
  C   C65       1.0  0.50333  0.20701  0.33604  1.0000
  C   C66       1.0  0.54024  0.23262  0.32833  1.0000
  C   C67       1.0  0.53701  0.27732  0.32768  1.0000
  H   H45       1.0  0.56445  0.29450  0.32278  1.0000
  O   O5        1.0  0.57986  0.21531  0.32358  1.0000
  H   H46       1.0  0.58576  0.21100  0.25968  1.0000
  C   C68       1.0  0.50642  0.16218  0.33723  1.0000
  H   H47       1.0  0.53546  0.14783  0.33260  1.0000
  C   C69       1.0  0.79547  0.99921  0.32720  1.0000
  C   C70       1.0  0.76986  0.96230  0.31932  1.0000
  C   C71       1.0  0.72516  0.96553  0.31880  1.0000
  H   H48       1.0  0.70797  0.93809  0.31400  1.0000
  O   O6        1.0  0.78717  0.92268  0.31483  1.0000
  H   H49       1.0  0.79162  0.91675  0.25098  1.0000
  C   C72       1.0  0.84029  0.99609  0.32908  1.0000
  H   H50       1.0  0.85466  0.96706  0.32468  1.0000
  C   C73       1.0  0.50657  0.44213  0.32978  1.0000
  C   C74       1.0  0.53783  0.40995  0.32424  1.0000
  H   H51       1.0  0.97616  0.43181  0.33557  1.0000
  C   C75       1.0  0.96163  0.09550  0.34132  1.0000
  C   C76       1.0  0.99297  0.06335  0.33658  1.0000
  H   H52       1.0  0.52349  0.07365  0.33613  1.0000
  H   H53       1.0  0.89415  0.14491  0.35726  1.0000
  H   H54       1.0  0.60512  0.36032  0.30711  1.0000
  N   N17       1.0  0.97144  0.13746  0.34120  1.0000
  N   N18       1.0  0.52804  0.36800  0.32621  1.0000
  C   C77       1.0  0.49721  0.29822  0.33315  1.0000
  C   C78       1.0  0.46051  0.27261  0.34011  1.0000
  C   C79       1.0  0.46353  0.22802  0.34161  1.0000
  H   H55       1.0  0.43593  0.21112  0.34703  1.0000
  H   H56       1.0  0.43102  0.28622  0.34443  1.0000
  C   C80       1.0  0.49338  0.34295  0.33220  1.0000
  H   H57       1.0  0.46405  0.35679  0.33673  1.0000
  C   C81       1.0  0.70426  0.00533  0.32430  1.0000
  C   C82       1.0  0.72987  0.04204  0.33094  1.0000
  C   C83       1.0  0.77446  0.03901  0.33258  1.0000
  H   H58       1.0  0.79136  0.06661  0.33797  1.0000
  H   H59       1.0  0.71627  0.07153  0.33534  1.0000
  C   C84       1.0  0.65953  0.00915  0.32408  1.0000
  H   H60       1.0  0.64570  0.03848  0.32869  1.0000
  C   C85       1.0  0.51603  0.98650  0.32921  1.0000
  C   C86       1.0  0.58140  0.92099  0.31804  1.0000
  C   C87       1.0  0.59250  0.96462  0.32079  1.0000
  C   C88       1.0  0.56038  0.99597  0.32571  1.0000
  N   N19       1.0  0.61201  0.89029  0.31060  1.0000
  C   C89       1.0  0.98352  0.51901  0.33315  1.0000
  C   C90       1.0  0.93915  0.50956  0.33247  1.0000
  C   C91       1.0  0.90694  0.54082  0.33785  1.0000
  C   C92       1.0  0.91799  0.58439  0.34403  1.0000
  N   N20       1.0  0.88729  0.61500  0.35134  1.0000
  H   H61       1.0  0.85731  0.60810  0.35481  1.0000
  H   H62       1.0  0.64192  0.89714  0.30467  1.0000
  H   H63       1.0  0.57073  0.52648  0.32621  1.0000
  H   H64       1.0  0.92889  0.97915  0.32663  1.0000
  N   N21       1.0  0.86499  0.53101  0.33544  1.0000
  N   N22       1.0  0.63446  0.97442  0.32049  1.0000
  C   C93       1.0  0.50333  0.70701  0.33604  1.0000
  C   C94       1.0  0.54024  0.73262  0.32833  1.0000
  C   C95       1.0  0.53701  0.77732  0.32768  1.0000
  H   H65       1.0  0.56445  0.79450  0.32278  1.0000
  O   O7        1.0  0.57986  0.71531  0.32358  1.0000
  H   H66       1.0  0.58576  0.71100  0.25968  1.0000
  C   C96       1.0  0.50642  0.66218  0.33723  1.0000
  H   H67       1.0  0.53546  0.64783  0.33260  1.0000
  C   C97       1.0  0.79547  0.49921  0.32720  1.0000
  C   C98       1.0  0.76986  0.46230  0.31932  1.0000
  C   C99       1.0  0.72516  0.46553  0.31880  1.0000
  H   H68       1.0  0.70797  0.43809  0.31400  1.0000
  O   O8        1.0  0.78717  0.42268  0.31483  1.0000
  H   H69       1.0  0.79162  0.41675  0.25098  1.0000
  C   C100      1.0  0.84029  0.49610  0.32908  1.0000
  H   H70       1.0  0.85466  0.46706  0.32468  1.0000
  C   C101      1.0  0.50657  0.94213  0.32978  1.0000
  C   C102      1.0  0.53783  0.90995  0.32424  1.0000
  H   H71       1.0  0.97616  0.93181  0.33557  1.0000
  C   C103      1.0  0.96163  0.59550  0.34132  1.0000
  C   C104      1.0  0.99297  0.56335  0.33658  1.0000
  H   H72       1.0  0.52349  0.57365  0.33613  1.0000
  H   H73       1.0  0.89415  0.64491  0.35726  1.0000
  H   H74       1.0  0.60512  0.86032  0.30711  1.0000
  N   N23       1.0  0.97144  0.63746  0.34120  1.0000
  N   N24       1.0  0.52804  0.86800  0.32621  1.0000
  C   C105      1.0  0.49721  0.79822  0.33315  1.0000
  C   C106      1.0  0.46051  0.77261  0.34011  1.0000
  C   C107      1.0  0.46353  0.72802  0.34161  1.0000
  H   H75       1.0  0.43593  0.71113  0.34703  1.0000
  H   H76       1.0  0.43102  0.78622  0.34443  1.0000
  C   C108      1.0  0.49338  0.84294  0.33220  1.0000
  H   H77       1.0  0.46405  0.85679  0.33673  1.0000
  C   C109      1.0  0.70426  0.50533  0.32430  1.0000
  C   C110      1.0  0.72987  0.54204  0.33094  1.0000
  C   C111      1.0  0.77446  0.53901  0.33258  1.0000
  H   H78       1.0  0.79136  0.56661  0.33797  1.0000
  H   H79       1.0  0.71627  0.57153  0.33534  1.0000
  C   C112      1.0  0.65953  0.50915  0.32408  1.0000
  H   H80       1.0  0.64570  0.53848  0.32869  1.0000
