data_image0
_chemical_formula_structural       C4NH2C3NHC4NC2NH2C4NC2NH2C2H2C2H2C2H2C2H2C2H2C2H2C24H15C24H15C24H15C24H15C24H15C24H15CHOC2H2OC2H2OC4NC2NHOHC4NC2NHOHC4NC2NHOHC4NC2NHOHC4NC2NHOHC4NC2NHOH
_chemical_formula_sum              "C216 N18 H126 O9"
_cell_length_a       61.6009
_cell_length_b       61.6008
_cell_length_c       14.9819
_cell_angle_alpha    90
_cell_angle_beta     90
_cell_angle_gamma    120

_space_group_name_H-M_alt    "P 1"
_space_group_IT_number       1

loop_
  _space_group_symop_operation_xyz
  'x, y, z'

loop_
  _atom_site_type_symbol
  _atom_site_label
  _atom_site_symmetry_multiplicity
  _atom_site_fract_x
  _atom_site_fract_y
  _atom_site_fract_z
  _atom_site_occupancy
  C   C1        1.0  0.01426  0.50818  0.22697  1.0000
  C   C2        1.0  0.01526  0.51002  0.06731  1.0000
  C   C3        1.0  0.01382  0.50635  0.38877  1.0000
  C   C4        1.0  0.02775  0.51388  0.30860  1.0000
  N   N1        1.0  0.02669  0.51441  0.14763  1.0000
  H   H1        1.0  0.02564  0.51531  0.01004  1.0000
  H   H2        1.0  0.02275  0.51030  0.44924  1.0000
  C   C5        1.0  0.97392  0.48796  0.30718  1.0000
  C   C6        1.0  0.98749  0.49563  0.22522  1.0000
  C   C7        1.0  0.98909  0.49870  0.06511  1.0000
  N   N2        1.0  0.97614  0.49202  0.14332  1.0000
  H   H3        1.0  0.95808  0.48468  0.13903  1.0000
  C   C8        1.0  0.51354  0.48627  0.30718  1.0000
  C   C9        1.0  0.50587  0.49217  0.22523  1.0000
  C   C10       1.0  0.49333  0.50639  0.22696  1.0000
  C   C11       1.0  0.48763  0.51418  0.30859  1.0000
  N   N3        1.0  0.48709  0.51259  0.14763  1.0000
  C   C12       1.0  0.49147  0.50554  0.06731  1.0000
  C   C13       1.0  0.50279  0.49068  0.06512  1.0000
  N   N4        1.0  0.50948  0.48442  0.14333  1.0000
  H   H4        1.0  0.48618  0.51063  0.01003  1.0000
  H   H5        1.0  0.51681  0.47369  0.13905  1.0000
  C   C14       1.0  0.51524  0.02758  0.30716  1.0000
  C   C15       1.0  0.50935  0.01402  0.22521  1.0000
  C   C16       1.0  0.49513  0.98725  0.22696  1.0000
  C   C17       1.0  0.48733  0.97376  0.30859  1.0000
  N   N5        1.0  0.48893  0.97482  0.14763  1.0000
  C   C18       1.0  0.49598  0.98625  0.06731  1.0000
  C   C19       1.0  0.51084  0.01242  0.06511  1.0000
  N   N6        1.0  0.51710  0.02537  0.14331  1.0000
  H   H6        1.0  0.49090  0.97586  0.01004  1.0000
  H   H7        1.0  0.52782  0.04343  0.13902  1.0000
  C   C20       1.0  0.25869  0.53788  0.27052  1.0000
  C   C21       1.0  0.28127  0.53747  0.27180  1.0000
  H   H8        1.0  0.29342  0.54562  0.21952  1.0000
  H   H9        1.0  0.25535  0.54626  0.21738  1.0000
  C   C22       1.0  0.46362  0.72112  0.27053  1.0000
  C   C23       1.0  0.46406  0.74412  0.27177  1.0000
  H   H10       1.0  0.45591  0.74813  0.21953  1.0000
  H   H11       1.0  0.45524  0.70940  0.21738  1.0000
  C   C24       1.0  0.28041  0.74283  0.27045  1.0000
  C   C25       1.0  0.25742  0.72025  0.27169  1.0000
  H   H12       1.0  0.25342  0.70810  0.21943  1.0000
  H   H13       1.0  0.29213  0.74618  0.21730  1.0000
  C   C26       1.0  0.74328  0.46328  0.26991  1.0000
  C   C27       1.0  0.72082  0.46392  0.27145  1.0000
  H   H14       1.0  0.70862  0.45587  0.21925  1.0000
  H   H15       1.0  0.74651  0.45487  0.21660  1.0000
  C   C28       1.0  0.53826  0.28033  0.26993  1.0000
  C   C29       1.0  0.53768  0.25726  0.27161  1.0000
  H   H16       1.0  0.54567  0.25307  0.21930  1.0000
  H   H17       1.0  0.54668  0.29198  0.21668  1.0000
  C   C30       1.0  0.72117  0.25829  0.27020  1.0000
  C   C31       1.0  0.74428  0.28074  0.27171  1.0000
  H   H18       1.0  0.74842  0.29294  0.21950  1.0000
  H   H19       1.0  0.70953  0.25503  0.21685  1.0000
  C   C32       1.0  0.17511  0.60784  0.34413  1.0000
  C   C33       1.0  0.14876  0.59425  0.33473  1.0000
  C   C34       1.0  0.13527  0.56770  0.32796  1.0000
  C   C35       1.0  0.14913  0.55495  0.32970  1.0000
  C   C36       1.0  0.17544  0.56795  0.34014  1.0000
  C   C37       1.0  0.18806  0.59434  0.34600  1.0000
  C   C38       1.0  0.10842  0.55414  0.32220  1.0000
  C   C39       1.0  0.09533  0.56313  0.27035  1.0000
  C   C40       1.0  0.06897  0.55005  0.26612  1.0000
  C   C41       1.0  0.05458  0.52720  0.31251  1.0000
  C   C42       1.0  0.06756  0.51821  0.36470  1.0000
  C   C43       1.0  0.09391  0.53143  0.36958  1.0000
  C   C44       1.0  0.18886  0.63447  0.35192  1.0000
  C   C45       1.0  0.18682  0.65000  0.28684  1.0000
  C   C46       1.0  0.20341  0.67611  0.28706  1.0000
  C   C47       1.0  0.22217  0.68746  0.35333  1.0000
  C   C48       1.0  0.22360  0.67199  0.42005  1.0000
  C   C49       1.0  0.20712  0.64598  0.41971  1.0000
  C   C50       1.0  0.18946  0.55532  0.34651  1.0000
  C   C51       1.0  0.20670  0.56110  0.41726  1.0000
  C   C52       1.0  0.22324  0.55165  0.41840  1.0000
  C   C53       1.0  0.22300  0.53593  0.34915  1.0000
  C   C54       1.0  0.20524  0.52953  0.27969  1.0000
  C   C55       1.0  0.18850  0.53886  0.27884  1.0000
  H   H20       1.0  0.20235  0.68668  0.23637  1.0000
  H   H21       1.0  0.17441  0.64225  0.23512  1.0000
  H   H22       1.0  0.23751  0.67934  0.46713  1.0000
  H   H23       1.0  0.20935  0.63536  0.46744  1.0000
  H   H24       1.0  0.20809  0.57312  0.46705  1.0000
  H   H25       1.0  0.23645  0.55758  0.46791  1.0000
  H   H26       1.0  0.17677  0.53488  0.22533  1.0000
  H   H27       1.0  0.20494  0.51866  0.22749  1.0000
  H   H28       1.0  0.10236  0.52442  0.40984  1.0000
  H   H29       1.0  0.05791  0.50179  0.39952  1.0000
  H   H30       1.0  0.06036  0.55758  0.22929  1.0000
  H   H31       1.0  0.10489  0.57931  0.23420  1.0000
  H   H32       1.0  0.13923  0.60390  0.33651  1.0000
  H   H33       1.0  0.20724  0.60400  0.35052  1.0000
  H   H34       1.0  0.13995  0.53582  0.32456  1.0000
  C   C56       1.0  0.39365  0.56756  0.34416  1.0000
  C   C57       1.0  0.40724  0.55480  0.33474  1.0000
  C   C58       1.0  0.43379  0.56787  0.32796  1.0000
  C   C59       1.0  0.44653  0.59448  0.32970  1.0000
  C   C60       1.0  0.43353  0.60779  0.34015  1.0000
  C   C61       1.0  0.40714  0.59401  0.34604  1.0000
  C   C62       1.0  0.44736  0.55459  0.32219  1.0000
  C   C63       1.0  0.43837  0.53250  0.27036  1.0000
  C   C64       1.0  0.45146  0.51924  0.26611  1.0000
  C   C65       1.0  0.47431  0.52769  0.31250  1.0000
  C   C66       1.0  0.48330  0.54967  0.36467  1.0000
  C   C67       1.0  0.47007  0.56279  0.36955  1.0000
  C   C68       1.0  0.36701  0.55467  0.35197  1.0000
  C   C69       1.0  0.35149  0.53708  0.28690  1.0000
  C   C70       1.0  0.32538  0.52755  0.28714  1.0000
  C   C71       1.0  0.31403  0.53497  0.35339  1.0000
  C   C72       1.0  0.32949  0.55187  0.42013  1.0000
  C   C73       1.0  0.35550  0.56141  0.41976  1.0000
  C   C74       1.0  0.44615  0.63442  0.34654  1.0000
  C   C75       1.0  0.44039  0.64589  0.41733  1.0000
  C   C76       1.0  0.44980  0.67188  0.41837  1.0000
  C   C77       1.0  0.46554  0.68737  0.34917  1.0000
  C   C78       1.0  0.47196  0.67601  0.27974  1.0000
  C   C79       1.0  0.46260  0.64993  0.27884  1.0000
  H   H35       1.0  0.31481  0.51593  0.23642  1.0000
  H   H36       1.0  0.35924  0.53243  0.23517  1.0000
  H   H37       1.0  0.32213  0.55843  0.46717  1.0000
  H   H38       1.0  0.36613  0.57427  0.46748  1.0000
  H   H39       1.0  0.42834  0.63526  0.46705  1.0000
  H   H40       1.0  0.44388  0.67915  0.46790  1.0000
  H   H41       1.0  0.46659  0.64218  0.22536  1.0000
  H   H42       1.0  0.48282  0.68658  0.22753  1.0000
  H   H43       1.0  0.47708  0.57826  0.40980  1.0000
  H   H44       1.0  0.49972  0.55645  0.39948  1.0000
  H   H45       1.0  0.44393  0.50309  0.22932  1.0000
  H   H46       1.0  0.42219  0.52587  0.23422  1.0000
  H   H47       1.0  0.39759  0.53562  0.33653  1.0000
  H   H48       1.0  0.39748  0.60352  0.35058  1.0000
  H   H49       1.0  0.46566  0.60443  0.32455  1.0000
  C   C80       1.0  0.43395  0.82640  0.34408  1.0000
  C   C81       1.0  0.44671  0.85275  0.33464  1.0000
  C   C82       1.0  0.43365  0.86623  0.32794  1.0000
  C   C83       1.0  0.40704  0.85238  0.32968  1.0000
  C   C84       1.0  0.39372  0.82606  0.34010  1.0000
  C   C85       1.0  0.40750  0.81344  0.34598  1.0000
  C   C86       1.0  0.44694  0.89309  0.32220  1.0000
  C   C87       1.0  0.46903  0.90619  0.27038  1.0000
  C   C88       1.0  0.48229  0.93254  0.26613  1.0000
  C   C89       1.0  0.47383  0.94693  0.31251  1.0000
  C   C90       1.0  0.45186  0.93394  0.36469  1.0000
  C   C91       1.0  0.43874  0.90759  0.36959  1.0000
  C   C92       1.0  0.44684  0.81265  0.35186  1.0000
  C   C93       1.0  0.46443  0.81472  0.28683  1.0000
  C   C94       1.0  0.47395  0.79813  0.28707  1.0000
  C   C95       1.0  0.46657  0.77938  0.35338  1.0000
  C   C96       1.0  0.44964  0.77793  0.42005  1.0000
  C   C97       1.0  0.44010  0.79440  0.41970  1.0000
  C   C98       1.0  0.36709  0.81205  0.34650  1.0000
  C   C99       1.0  0.35562  0.79482  0.41730  1.0000
  C   C100      1.0  0.32963  0.77828  0.41841  1.0000
  C   C101      1.0  0.31415  0.77850  0.34913  1.0000
  C   C102      1.0  0.32550  0.79627  0.27969  1.0000
  C   C103      1.0  0.35159  0.81298  0.27876  1.0000
  H   H50       1.0  0.48561  0.79921  0.23644  1.0000
  H   H51       1.0  0.46909  0.82713  0.23512  1.0000
  H   H52       1.0  0.44307  0.76401  0.46708  1.0000
  H   H53       1.0  0.42721  0.79214  0.46733  1.0000
  H   H54       1.0  0.36625  0.79340  0.46700  1.0000
  H   H55       1.0  0.32236  0.76504  0.46783  1.0000
  H   H56       1.0  0.35933  0.82475  0.22535  1.0000
  H   H57       1.0  0.31494  0.79658  0.22749  1.0000
  H   H58       1.0  0.42326  0.89914  0.40979  1.0000
  H   H59       1.0  0.44507  0.94358  0.39948  1.0000
  H   H60       1.0  0.49844  0.94116  0.22934  1.0000
  H   H61       1.0  0.47565  0.89663  0.23422  1.0000
  H   H62       1.0  0.46590  0.86228  0.33649  1.0000
  H   H63       1.0  0.39798  0.79427  0.35050  1.0000
  H   H64       1.0  0.39709  0.86155  0.32455  1.0000
  C   C104      1.0  0.82677  0.39284  0.34462  1.0000
  C   C105      1.0  0.85313  0.40650  0.33553  1.0000
  C   C106      1.0  0.86655  0.43305  0.32834  1.0000
  C   C107      1.0  0.85258  0.44568  0.32918  1.0000
  C   C108      1.0  0.82626  0.43263  0.33943  1.0000
  C   C109      1.0  0.81373  0.40626  0.34580  1.0000
  C   C110      1.0  0.89343  0.44673  0.32288  1.0000
  C   C111      1.0  0.90673  0.43762  0.27283  1.0000
  C   C112      1.0  0.93309  0.45097  0.26829  1.0000
  C   C113      1.0  0.94718  0.47431  0.31184  1.0000
  C   C114      1.0  0.93409  0.48336  0.36294  1.0000
  C   C115      1.0  0.90776  0.46979  0.36853  1.0000
  C   C116      1.0  0.81307  0.36622  0.35263  1.0000
  C   C117      1.0  0.81504  0.35068  0.28740  1.0000
  C   C118      1.0  0.79838  0.32459  0.28756  1.0000
  C   C119      1.0  0.77961  0.31326  0.35381  1.0000
  C   C120      1.0  0.77827  0.32875  0.42068  1.0000
  C   C121      1.0  0.79482  0.35474  0.42045  1.0000
  C   C122      1.0  0.81219  0.44521  0.34548  1.0000
  C   C123      1.0  0.79492  0.43944  0.41612  1.0000
  C   C124      1.0  0.77846  0.44899  0.41728  1.0000
  C   C125      1.0  0.77883  0.46483  0.34825  1.0000
  C   C126      1.0  0.79659  0.47119  0.27881  1.0000
  C   C127      1.0  0.81324  0.46173  0.27790  1.0000
  H   H65       1.0  0.79940  0.31401  0.23681  1.0000
  H   H66       1.0  0.82748  0.35841  0.23576  1.0000
  H   H67       1.0  0.76430  0.32144  0.46755  1.0000
  H   H68       1.0  0.79258  0.36539  0.46807  1.0000
  H   H69       1.0  0.79348  0.42740  0.46591  1.0000
  H   H70       1.0  0.76527  0.44312  0.46684  1.0000
  H   H71       1.0  0.82503  0.46576  0.22456  1.0000
  H   H72       1.0  0.79700  0.48216  0.22680  1.0000
  H   H73       1.0  0.89920  0.47690  0.40774  1.0000
  H   H74       1.0  0.94364  0.50004  0.39635  1.0000
  H   H75       1.0  0.94195  0.44359  0.23197  1.0000
  H   H76       1.0  0.89733  0.42121  0.23783  1.0000
  H   H77       1.0  0.86271  0.39690  0.33796  1.0000
  H   H78       1.0  0.79455  0.39654  0.35016  1.0000
  H   H79       1.0  0.86167  0.46480  0.32358  1.0000
  C   C128      1.0  0.60867  0.43424  0.34462  1.0000
  C   C129      1.0  0.59502  0.44695  0.33550  1.0000
  C   C130      1.0  0.56847  0.43383  0.32838  1.0000
  C   C131      1.0  0.55583  0.40722  0.32923  1.0000
  C   C132      1.0  0.56888  0.39395  0.33949  1.0000
  C   C133      1.0  0.59525  0.40779  0.34581  1.0000
  C   C134      1.0  0.55478  0.44702  0.32293  1.0000
  C   C135      1.0  0.56390  0.46943  0.27284  1.0000
  C   C136      1.0  0.55054  0.48244  0.26826  1.0000
  C   C137      1.0  0.52720  0.47319  0.31185  1.0000
  C   C138      1.0  0.51816  0.45105  0.36299  1.0000
  C   C139      1.0  0.53173  0.43829  0.36858  1.0000
  C   C140      1.0  0.63530  0.44716  0.35257  1.0000
  C   C141      1.0  0.65083  0.46468  0.28735  1.0000
  C   C142      1.0  0.67693  0.47412  0.28747  1.0000
  C   C143      1.0  0.68825  0.46665  0.35365  1.0000
  C   C144      1.0  0.67277  0.44978  0.42045  1.0000
  C   C145      1.0  0.64678  0.44038  0.42035  1.0000
  C   C146      1.0  0.55630  0.36731  0.34556  1.0000
  C   C147      1.0  0.56207  0.35580  0.41622  1.0000
  C   C148      1.0  0.55254  0.32980  0.41735  1.0000
  C   C149      1.0  0.53671  0.31433  0.34829  1.0000
  C   C150      1.0  0.53031  0.32572  0.27891  1.0000
  C   C151      1.0  0.53979  0.35182  0.27796  1.0000
  H   H80       1.0  0.68751  0.48573  0.23675  1.0000
  H   H81       1.0  0.64310  0.46940  0.23578  1.0000
  H   H82       1.0  0.68009  0.44316  0.46740  1.0000
  H   H83       1.0  0.63614  0.42750  0.46799  1.0000
  H   H84       1.0  0.57411  0.36641  0.46599  1.0000
  H   H85       1.0  0.55842  0.32248  0.46690  1.0000
  H   H86       1.0  0.53576  0.35959  0.22464  1.0000
  H   H87       1.0  0.51937  0.31516  0.22684  1.0000
  H   H88       1.0  0.52463  0.42263  0.40785  1.0000
  H   H89       1.0  0.50148  0.44393  0.39643  1.0000
  H   H90       1.0  0.55792  0.49867  0.23194  1.0000
  H   H91       1.0  0.58030  0.47644  0.23783  1.0000
  H   H92       1.0  0.60462  0.46613  0.33797  1.0000
  H   H93       1.0  0.60496  0.39832  0.35016  1.0000
  H   H94       1.0  0.53671  0.39720  0.32367  1.0000
  C   C152      1.0  0.56729  0.17475  0.34460  1.0000
  C   C153      1.0  0.55458  0.14838  0.33546  1.0000
  C   C154      1.0  0.56769  0.13496  0.32834  1.0000
  C   C155      1.0  0.59431  0.14892  0.32921  1.0000
  C   C156      1.0  0.60758  0.17524  0.33950  1.0000
  C   C157      1.0  0.59375  0.18778  0.34582  1.0000
  C   C158      1.0  0.55450  0.10808  0.32288  1.0000
  C   C159      1.0  0.53209  0.09478  0.27276  1.0000
  C   C160      1.0  0.51908  0.06842  0.26822  1.0000
  C   C161      1.0  0.52832  0.05433  0.31182  1.0000
  C   C162      1.0  0.55046  0.06742  0.36298  1.0000
  C   C163      1.0  0.56322  0.09375  0.36855  1.0000
  C   C164      1.0  0.55437  0.18845  0.35255  1.0000
  C   C165      1.0  0.53687  0.18649  0.28731  1.0000
  C   C166      1.0  0.52743  0.20315  0.28745  1.0000
  C   C167      1.0  0.53487  0.22192  0.35370  1.0000
  C   C168      1.0  0.55173  0.22329  0.42051  1.0000
  C   C169      1.0  0.56117  0.20673  0.42030  1.0000
  C   C170      1.0  0.63422  0.18929  0.34556  1.0000
  C   C171      1.0  0.64573  0.20656  0.41624  1.0000
  C   C172      1.0  0.67173  0.22302  0.41744  1.0000
  C   C173      1.0  0.68719  0.22268  0.34831  1.0000
  C   C174      1.0  0.67581  0.20493  0.27885  1.0000
  C   C175      1.0  0.64970  0.18828  0.27793  1.0000
  H   H95       1.0  0.51583  0.20212  0.23671  1.0000
  H   H96       1.0  0.53215  0.17404  0.23570  1.0000
  H   H97       1.0  0.55834  0.23722  0.46751  1.0000
  H   H98       1.0  0.57400  0.20893  0.46806  1.0000
  H   H99       1.0  0.63512  0.20800  0.46602  1.0000
  H   H100      1.0  0.67904  0.23622  0.46696  1.0000
  H   H101      1.0  0.64194  0.17649  0.22460  1.0000
  H   H102      1.0  0.68637  0.20454  0.22681  1.0000
  H   H103      1.0  0.57888  0.10231  0.40783  1.0000
  H   H104      1.0  0.55758  0.05786  0.39641  1.0000
  H   H105      1.0  0.50285  0.05957  0.23189  1.0000
  H   H106      1.0  0.52509  0.10418  0.23778  1.0000
  H   H107      1.0  0.53540  0.13881  0.33790  1.0000
  H   H108      1.0  0.60322  0.20696  0.35019  1.0000
  H   H109      1.0  0.60432  0.13982  0.32364  1.0000
  C   C176      1.0  0.98752  0.49358  0.38807  1.0000
  H   H110      1.0  0.97832  0.48818  0.44800  1.0000
  O   O1        1.0  0.97709  0.49462  0.65257  1.0000
  C   C177      1.0  0.49518  0.50780  0.38876  1.0000
  C   C178      1.0  0.50794  0.49427  0.38807  1.0000
  H   H111      1.0  0.51335  0.49047  0.44800  1.0000
  H   H112      1.0  0.49123  0.51278  0.44924  1.0000
  O   O2        1.0  0.50686  0.48276  0.65258  1.0000
  C   C179      1.0  0.49371  0.98769  0.38876  1.0000
  C   C180      1.0  0.50724  0.01399  0.38805  1.0000
  H   H113      1.0  0.51103  0.02319  0.44798  1.0000
  H   H114      1.0  0.48873  0.97877  0.44923  1.0000
  O   O3        1.0  0.51877  0.02441  0.65257  1.0000
  C   C181      1.0  0.28848  0.52887  0.34755  1.0000
  C   C182      1.0  0.27164  0.51905  0.42113  1.0000
  C   C183      1.0  0.24885  0.51977  0.41924  1.0000
  C   C184      1.0  0.24252  0.52985  0.34514  1.0000
  N   N7        1.0  0.23345  0.51101  0.49151  1.0000
  C   C185      1.0  0.23850  0.50155  0.56496  1.0000
  C   C186      1.0  0.26075  0.50057  0.56710  1.0000
  N   N8        1.0  0.27649  0.50923  0.49575  1.0000
  H   H115      1.0  0.22622  0.49523  0.61727  1.0000
  O   O4        1.0  0.26628  0.49109  0.63947  1.0000
  H   H116      1.0  0.29153  0.50784  0.49873  1.0000
  C   C187      1.0  0.47264  0.75991  0.34757  1.0000
  C   C188      1.0  0.48244  0.75289  0.42118  1.0000
  C   C189      1.0  0.48170  0.72937  0.41929  1.0000
  C   C190      1.0  0.47163  0.71296  0.34518  1.0000
  N   N9        1.0  0.49045  0.72271  0.49157  1.0000
  C   C191      1.0  0.49991  0.73722  0.56502  1.0000
  C   C192      1.0  0.50090  0.76045  0.56716  1.0000
  N   N10       1.0  0.49225  0.76755  0.49581  1.0000
  H   H117      1.0  0.50623  0.73126  0.61734  1.0000
  O   O5        1.0  0.51038  0.77546  0.63953  1.0000
  H   H118      1.0  0.49366  0.78399  0.49878  1.0000
  C   C193      1.0  0.24163  0.71300  0.34749  1.0000
  C   C194      1.0  0.24864  0.72984  0.42108  1.0000
  C   C195      1.0  0.27215  0.75264  0.41921  1.0000
  C   C196      1.0  0.28856  0.75899  0.34512  1.0000
  N   N11       1.0  0.27878  0.76804  0.49150  1.0000
  C   C197      1.0  0.26427  0.76297  0.56494  1.0000
  C   C198      1.0  0.24105  0.74072  0.56707  1.0000
  N   N12       1.0  0.23397  0.72498  0.49571  1.0000
  H   H119      1.0  0.27021  0.77525  0.61726  1.0000
  O   O6        1.0  0.22603  0.73518  0.63942  1.0000
  H   H120      1.0  0.21754  0.70994  0.49866  1.0000
  C   C199      1.0  0.71373  0.47252  0.34748  1.0000
  C   C200      1.0  0.73063  0.48223  0.42095  1.0000
  C   C201      1.0  0.75330  0.48128  0.41877  1.0000
  C   C202      1.0  0.75947  0.47111  0.34448  1.0000
  N   N13       1.0  0.76875  0.48990  0.49095  1.0000
  C   C203      1.0  0.76386  0.49943  0.56455  1.0000
  C   C204      1.0  0.74172  0.50063  0.56699  1.0000
  N   N14       1.0  0.72593  0.49210  0.49575  1.0000
  H   H121      1.0  0.77616  0.50564  0.61679  1.0000
  O   O7        1.0  0.73635  0.51018  0.63952  1.0000
  H   H122      1.0  0.71099  0.49365  0.49892  1.0000
  C   C205      1.0  0.52901  0.24153  0.34754  1.0000
  C   C206      1.0  0.51930  0.24873  0.42098  1.0000
  C   C207      1.0  0.52026  0.27235  0.41881  1.0000
  C   C208      1.0  0.53043  0.28868  0.34453  1.0000
  N   N15       1.0  0.51163  0.27918  0.49097  1.0000
  C   C209      1.0  0.50208  0.26475  0.56455  1.0000
  C   C210      1.0  0.50087  0.24141  0.56698  1.0000
  N   N16       1.0  0.50941  0.23415  0.49575  1.0000
  H   H123      1.0  0.49586  0.27084  0.61677  1.0000
  O   O8        1.0  0.49130  0.22649  0.63948  1.0000
  H   H124      1.0  0.50785  0.21765  0.49891  1.0000
  C   C211      1.0  0.76000  0.28779  0.34766  1.0000
  C   C212      1.0  0.75280  0.27088  0.42108  1.0000
  C   C213      1.0  0.72918  0.24821  0.41886  1.0000
  C   C214      1.0  0.71285  0.24204  0.34460  1.0000
  N   N17       1.0  0.72237  0.23273  0.49098  1.0000
  C   C215      1.0  0.73680  0.23761  0.56456  1.0000
  C   C216      1.0  0.76012  0.25974  0.56704  1.0000
  N   N18       1.0  0.76738  0.27556  0.49585  1.0000
  H   H125      1.0  0.73071  0.22529  0.61674  1.0000
  O   O9        1.0  0.77505  0.26509  0.63953  1.0000
  H   H126      1.0  0.78387  0.29050  0.49904  1.0000
