data_image0
_chemical_formula_structural       HCH3CH2C3OHOHNC3OHOHNC2O2H2C2O2H2C3OHOHNC3OHOHNC2O2H2C2O2H2C2OHOHC2OHOHC6HOC6OH5C4H4C6HOC6OH5C4H4C6HOC6OH5C4H4C6HOC6OH4C3H2C6HOC6OH4C3H2C3O2H2NC3O2H2NC4OHOHN2C4OHOHN2C3O2H2NC3O2H2NC4OHOHN2C4OHOHN2C4O2H2N2C4O2H2N2
_chemical_formula_sum              "H90 C140 O50 N20"
_cell_length_a       33.3589
_cell_length_b       41.821
_cell_length_c       14.8076
_cell_angle_alpha    88.2138
_cell_angle_beta     91.4007
_cell_angle_gamma    90.3218

_space_group_name_H-M_alt    "P 1"
_space_group_IT_number       1

loop_
  _space_group_symop_operation_xyz
  'x, y, z'

loop_
  _atom_site_type_symbol
  _atom_site_label
  _atom_site_symmetry_multiplicity
  _atom_site_fract_x
  _atom_site_fract_y
  _atom_site_fract_z
  _atom_site_occupancy
  H   H1        1.0  0.77972  0.37582  0.34735  1.0000
  C   C1        1.0  0.85001  0.34774  0.34864  1.0000
  H   H2        1.0  0.85211  0.37214  0.34717  1.0000
  H   H3        1.0  0.58400  0.33021  0.30630  1.0000
  H   H4        1.0  0.17793  0.66995  0.34737  1.0000
  C   C2        1.0  0.10775  0.69812  0.34878  1.0000
  H   H5        1.0  0.10558  0.67375  0.34738  1.0000
  H   H6        1.0  0.37294  0.71578  0.30637  1.0000
  C   C3        1.0  0.13846  0.18889  0.38647  1.0000
  C   C4        1.0  0.12748  0.17076  0.31054  1.0000
  C   C5        1.0  0.11643  0.13811  0.32082  1.0000
  O   O1        1.0  0.10572  0.12183  0.24574  1.0000
  H   H7        1.0  0.13086  0.11529  0.21850  1.0000
  O   O2        1.0  0.13073  0.18389  0.22567  1.0000
  H   H8        1.0  0.10439  0.19322  0.20981  1.0000
  N   N1        1.0  0.14840  0.22019  0.37205  1.0000
  C   C6        1.0  0.81985  0.85601  0.38608  1.0000
  C   C7        1.0  0.82928  0.87579  0.31020  1.0000
  C   C8        1.0  0.84057  0.90821  0.32051  1.0000
  O   O3        1.0  0.84977  0.92612  0.24547  1.0000
  H   H9        1.0  0.82408  0.93328  0.21810  1.0000
  O   O4        1.0  0.82431  0.86451  0.22531  1.0000
  H   H10       1.0  0.85032  0.85553  0.20961  1.0000
  N   N2        1.0  0.80962  0.82503  0.37163  1.0000
  C   C9        1.0  0.79720  0.14210  0.36168  1.0000
  C   C10       1.0  0.78045  0.17319  0.35633  1.0000
  O   O5        1.0  0.77317  0.11668  0.34186  1.0000
  O   O6        1.0  0.74127  0.17702  0.33114  1.0000
  H   H11       1.0  0.77631  0.11302  0.27713  1.0000
  H   H12       1.0  0.74063  0.17939  0.26483  1.0000
  C   C11       1.0  0.16094  0.90337  0.36172  1.0000
  C   C12       1.0  0.17764  0.87241  0.35643  1.0000
  O   O7        1.0  0.18449  0.92925  0.34183  1.0000
  O   O8        1.0  0.21628  0.86917  0.33123  1.0000
  H   H13       1.0  0.17995  0.93430  0.27708  1.0000
  H   H14       1.0  0.21549  0.86823  0.26493  1.0000
  C   C13       1.0  0.26348  0.55251  0.38128  1.0000
  C   C14       1.0  0.25507  0.53839  0.29724  1.0000
  C   C15       1.0  0.25467  0.50470  0.28985  1.0000
  O   O9        1.0  0.24646  0.49212  0.20770  1.0000
  H   H15       1.0  0.27097  0.49464  0.17248  1.0000
  O   O10       1.0  0.24980  0.55708  0.22082  1.0000
  H   H16       1.0  0.27662  0.56074  0.19619  1.0000
  N   N3        1.0  0.26852  0.58482  0.38016  1.0000
  C   C16       1.0  0.69477  0.49260  0.38023  1.0000
  C   C17       1.0  0.70250  0.50853  0.29668  1.0000
  C   C18       1.0  0.70257  0.54237  0.28904  1.0000
  O   O11       1.0  0.71011  0.55670  0.20735  1.0000
  H   H17       1.0  0.68526  0.55501  0.17059  1.0000
  O   O12       1.0  0.70740  0.49147  0.22077  1.0000
  H   H18       1.0  0.68043  0.48826  0.19405  1.0000
  N   N4        1.0  0.68988  0.46030  0.37882  1.0000
  C   C19       1.0  0.94970  0.36002  0.34895  1.0000
  C   C20       1.0  0.99232  0.35812  0.35030  1.0000
  O   O13       1.0  0.93185  0.38916  0.34243  1.0000
  O   O14       1.0  0.01417  0.38561  0.34543  1.0000
  H   H19       1.0  0.92826  0.39421  0.27744  1.0000
  H   H20       1.0  0.01754  0.39058  0.28070  1.0000
  C   C21       1.0  0.00812  0.68588  0.34919  1.0000
  C   C22       1.0  0.96553  0.68774  0.35058  1.0000
  O   O15       1.0  0.02583  0.65687  0.34273  1.0000
  O   O16       1.0  0.94358  0.66035  0.34577  1.0000
  H   H21       1.0  0.02799  0.65323  0.27775  1.0000
  H   H22       1.0  0.93881  0.65678  0.28105  1.0000
  C   C23       1.0  0.45162  0.34844  0.28739  1.0000
  C   C24       1.0  0.49403  0.34792  0.29799  1.0000
  O   O17       1.0  0.51663  0.35163  0.22309  1.0000
  H   H23       1.0  0.51803  0.33040  0.19664  1.0000
  O   O18       1.0  0.43516  0.35110  0.20238  1.0000
  H   H24       1.0  0.43040  0.32914  0.18266  1.0000
  C   C25       1.0  0.50490  0.69782  0.28804  1.0000
  C   C26       1.0  0.46270  0.69814  0.29851  1.0000
  O   O19       1.0  0.43854  0.69605  0.22355  1.0000
  H   H25       1.0  0.43660  0.71784  0.19699  1.0000
  O   O20       1.0  0.51958  0.69697  0.20308  1.0000
  H   H26       1.0  0.52391  0.71936  0.18327  1.0000
  C   C27       1.0  0.95817  0.02412  0.42534  1.0000
  C   C28       1.0  0.92939  0.99883  0.41719  1.0000
  C   C29       1.0  0.88815  0.00387  0.39605  1.0000
  C   C30       1.0  0.87408  0.03581  0.38643  1.0000
  C   C31       1.0  0.90026  0.06179  0.40405  1.0000
  C   C32       1.0  0.94114  0.05507  0.42435  1.0000
  H   H27       1.0  0.93867  0.97572  0.41627  1.0000
  O   O21       1.0  0.83486  0.04150  0.36352  1.0000
  C   C33       1.0  0.00116  0.01980  0.42533  1.0000
  C   C34       1.0  0.01817  0.98887  0.42410  1.0000
  C   C35       1.0  0.05863  0.98262  0.40388  1.0000
  C   C36       1.0  0.08442  0.00902  0.38651  1.0000
  C   C37       1.0  0.07054  0.04074  0.39630  1.0000
  C   C38       1.0  0.02975  0.04528  0.41752  1.0000
  O   O22       1.0  0.12316  0.00386  0.36362  1.0000
  H   H28       1.0  0.02043  0.06841  0.41646  1.0000
  H   H29       1.0  0.82000  0.03985  0.42006  1.0000
  H   H30       1.0  0.13923  0.00426  0.42017  1.0000
  H   H31       1.0  0.95913  0.07406  0.43892  1.0000
  H   H32       1.0  0.00048  0.96954  0.43840  1.0000
  C   C39       1.0  0.88898  0.09436  0.40147  1.0000
  C   C40       1.0  0.86323  0.97745  0.37523  1.0000
  C   C41       1.0  0.06989  0.95013  0.40121  1.0000
  C   C42       1.0  0.09499  0.06764  0.37555  1.0000
  H   H33       1.0  0.11933  0.06491  0.33587  1.0000
  H   H34       1.0  0.91164  0.11035  0.40993  1.0000
  H   H35       1.0  0.83797  0.98104  0.33574  1.0000
  H   H36       1.0  0.04743  0.93392  0.40949  1.0000
  C   C43       1.0  0.20147  0.32897  0.39004  1.0000
  C   C44       1.0  0.20195  0.29523  0.40832  1.0000
  C   C45       1.0  0.16774  0.27512  0.39945  1.0000
  C   C46       1.0  0.12998  0.28944  0.37878  1.0000
  C   C47       1.0  0.12607  0.32319  0.36991  1.0000
  C   C48       1.0  0.16201  0.34166  0.37381  1.0000
  H   H37       1.0  0.22848  0.28395  0.42209  1.0000
  O   O23       1.0  0.09656  0.27049  0.37502  1.0000
  C   C49       1.0  0.23793  0.34808  0.38291  1.0000
  C   C50       1.0  0.27776  0.33573  0.39630  1.0000
  C   C51       1.0  0.31333  0.35243  0.37052  1.0000
  C   C52       1.0  0.30896  0.38345  0.32989  1.0000
  C   C53       1.0  0.27125  0.39882  0.32967  1.0000
  C   C54       1.0  0.23712  0.38128  0.35760  1.0000
  O   O24       1.0  0.34192  0.40109  0.30605  1.0000
  H   H38       1.0  0.21070  0.39333  0.35261  1.0000
  H   H39       1.0  0.08876  0.26617  0.43794  1.0000
  H   H40       1.0  0.35109  0.41232  0.36032  1.0000
  H   H41       1.0  0.15833  0.36568  0.36500  1.0000
  H   H42       1.0  0.28169  0.31317  0.42282  1.0000
  C   C55       1.0  0.08824  0.33884  0.35945  1.0000
  C   C56       1.0  0.17054  0.24177  0.41854  1.0000
  C   C57       1.0  0.35204  0.33979  0.39229  1.0000
  C   C58       1.0  0.26732  0.43126  0.30232  1.0000
  H   H43       1.0  0.28632  0.44032  0.25459  1.0000
  H   H44       1.0  0.08758  0.36325  0.35371  1.0000
  H   H45       1.0  0.19365  0.23312  0.45878  1.0000
  H   H46       1.0  0.35459  0.32212  0.44137  1.0000
  C   C59       1.0  0.75721  0.71576  0.38972  1.0000
  C   C60       1.0  0.75695  0.74912  0.40758  1.0000
  C   C61       1.0  0.79095  0.76948  0.39898  1.0000
  C   C62       1.0  0.82834  0.75569  0.37859  1.0000
  C   C63       1.0  0.83219  0.72213  0.37006  1.0000
  C   C64       1.0  0.79641  0.70349  0.37409  1.0000
  H   H47       1.0  0.73064  0.76005  0.42098  1.0000
  O   O25       1.0  0.86163  0.77477  0.37488  1.0000
  C   C65       1.0  0.72069  0.69670  0.38248  1.0000
  C   C66       1.0  0.68109  0.70853  0.39664  1.0000
  C   C67       1.0  0.64501  0.69227  0.37114  1.0000
  C   C68       1.0  0.64861  0.66223  0.33010  1.0000
  C   C69       1.0  0.68645  0.64713  0.32856  1.0000
  C   C70       1.0  0.72113  0.66420  0.35597  1.0000
  O   O26       1.0  0.61527  0.64491  0.30661  1.0000
  H   H48       1.0  0.74753  0.65254  0.34919  1.0000
  H   H49       1.0  0.87074  0.77775  0.43783  1.0000
  H   H50       1.0  0.60754  0.63239  0.36092  1.0000
  H   H51       1.0  0.80005  0.67963  0.36630  1.0000
  H   H52       1.0  0.67768  0.73040  0.42383  1.0000
  C   C71       1.0  0.86985  0.70676  0.35979  1.0000
  C   C72       1.0  0.78845  0.80241  0.41799  1.0000
  C   C73       1.0  0.60672  0.70427  0.39316  1.0000
  C   C74       1.0  0.69026  0.61550  0.29955  1.0000
  H   H53       1.0  0.67047  0.60795  0.25087  1.0000
  H   H54       1.0  0.87046  0.68247  0.35430  1.0000
  H   H55       1.0  0.76611  0.81020  0.45795  1.0000
  H   H56       1.0  0.60518  0.72083  0.44234  1.0000
  C   C75       1.0  0.73586  0.33874  0.34957  1.0000
  C   C76       1.0  0.73377  0.30471  0.34921  1.0000
  C   C77       1.0  0.76767  0.28454  0.34878  1.0000
  C   C78       1.0  0.80621  0.29918  0.34585  1.0000
  C   C79       1.0  0.81128  0.33291  0.34776  1.0000
  C   C80       1.0  0.77575  0.35164  0.34876  1.0000
  H   H57       1.0  0.70671  0.29355  0.35612  1.0000
  O   O27       1.0  0.83901  0.28043  0.33664  1.0000
  C   C81       1.0  0.69991  0.35761  0.35817  1.0000
  C   C82       1.0  0.66016  0.34513  0.34571  1.0000
  C   C83       1.0  0.62483  0.36070  0.37315  1.0000
  C   C84       1.0  0.62945  0.39104  0.41256  1.0000
  C   C85       1.0  0.66710  0.40704  0.41033  1.0000
  C   C86       1.0  0.70123  0.39024  0.38270  1.0000
  O   O28       1.0  0.59635  0.40745  0.43736  1.0000
  H   H58       1.0  0.72812  0.40170  0.38976  1.0000
  H   H59       1.0  0.84208  0.27788  0.27131  1.0000
  H   H60       1.0  0.58629  0.41929  0.38301  1.0000
  H   H61       1.0  0.65627  0.32349  0.31663  1.0000
  C   C87       1.0  0.76189  0.25085  0.35174  1.0000
  C   C88       1.0  0.58631  0.34741  0.35383  1.0000
  C   C89       1.0  0.67060  0.43935  0.43450  1.0000
  H   H62       1.0  0.64882  0.44893  0.47267  1.0000
  H   H63       1.0  0.73372  0.24121  0.34663  1.0000
  C   C90       1.0  0.22195  0.70690  0.34990  1.0000
  C   C91       1.0  0.22413  0.74093  0.34952  1.0000
  C   C92       1.0  0.19028  0.76118  0.34902  1.0000
  C   C93       1.0  0.15163  0.74667  0.34607  1.0000
  C   C94       1.0  0.14650  0.71291  0.34795  1.0000
  C   C95       1.0  0.18199  0.69409  0.34899  1.0000
  H   H64       1.0  0.25139  0.75188  0.35625  1.0000
  O   O29       1.0  0.11868  0.76567  0.33681  1.0000
  C   C96       1.0  0.25799  0.68775  0.35865  1.0000
  C   C97       1.0  0.29753  0.70034  0.34598  1.0000
  C   C98       1.0  0.33337  0.68406  0.37349  1.0000
  C   C99       1.0  0.32942  0.65294  0.41339  1.0000
  C   C100      1.0  0.29161  0.63715  0.41172  1.0000
  C   C101      1.0  0.25699  0.65464  0.38381  1.0000
  O   O30       1.0  0.36291  0.63586  0.43846  1.0000
  H   H65       1.0  0.23019  0.64320  0.39176  1.0000
  H   H66       1.0  0.11423  0.76966  0.27148  1.0000
  H   H67       1.0  0.37168  0.62503  0.38429  1.0000
  H   H68       1.0  0.30089  0.72258  0.31670  1.0000
  C   C102      1.0  0.19619  0.79479  0.35200  1.0000
  C   C103      1.0  0.37156  0.69761  0.35414  1.0000
  C   C104      1.0  0.28820  0.60445  0.43748  1.0000
  H   H69       1.0  0.31066  0.59420  0.47636  1.0000
  H   H70       1.0  0.22427  0.80452  0.34680  1.0000
  C   C105      1.0  0.10950  0.12457  0.40803  1.0000
  C   C106      1.0  0.11773  0.14347  0.48407  1.0000
  C   C107      1.0  0.13410  0.17467  0.47381  1.0000
  O   O31       1.0  0.11081  0.13144  0.56888  1.0000
  O   O32       1.0  0.14160  0.19180  0.54913  1.0000
  H   H71       1.0  0.13557  0.12049  0.58936  1.0000
  H   H72       1.0  0.11672  0.20327  0.56114  1.0000
  N   N5        1.0  0.09351  0.09488  0.42272  1.0000
  C   C108      1.0  0.84931  0.91983  0.40776  1.0000
  C   C109      1.0  0.84263  0.89928  0.48376  1.0000
  C   C110      1.0  0.82602  0.86831  0.47344  1.0000
  O   O33       1.0  0.85132  0.90944  0.56861  1.0000
  O   O34       1.0  0.82008  0.84953  0.54873  1.0000
  H   H73       1.0  0.82699  0.91995  0.58900  1.0000
  H   H74       1.0  0.84520  0.83778  0.56087  1.0000
  N   N6        1.0  0.86566  0.94918  0.42246  1.0000
  C   C111      1.0  0.80461  0.20004  0.37598  1.0000
  C   C112      1.0  0.84491  0.19539  0.40368  1.0000
  C   C113      1.0  0.86149  0.16450  0.41010  1.0000
  C   C114      1.0  0.83806  0.13725  0.38706  1.0000
  O   O35       1.0  0.90025  0.16306  0.44048  1.0000
  H   H75       1.0  0.89931  0.15892  0.50618  1.0000
  O   O36       1.0  0.86873  0.22079  0.42490  1.0000
  H   H76       1.0  0.86424  0.22488  0.48893  1.0000
  N   N7        1.0  0.79290  0.23087  0.36859  1.0000
  N   N8        1.0  0.85178  0.10657  0.38719  1.0000
  C   C115      1.0  0.15396  0.84510  0.37615  1.0000
  C   C116      1.0  0.11425  0.84911  0.40388  1.0000
  C   C117      1.0  0.09774  0.87984  0.41020  1.0000
  C   C118      1.0  0.12062  0.90762  0.38706  1.0000
  O   O37       1.0  0.05965  0.88059  0.44067  1.0000
  H   H77       1.0  0.06203  0.88335  0.50634  1.0000
  O   O38       1.0  0.09096  0.82322  0.42526  1.0000
  H   H78       1.0  0.09687  0.81775  0.48927  1.0000
  N   N9        1.0  0.16558  0.81445  0.36880  1.0000
  N   N10       1.0  0.10682  0.93828  0.38711  1.0000
  C   C119      1.0  0.25828  0.48450  0.36825  1.0000
  C   C120      1.0  0.26328  0.49874  0.45326  1.0000
  C   C121      1.0  0.26805  0.53227  0.45939  1.0000
  O   O39       1.0  0.26619  0.48012  0.53039  1.0000
  O   O40       1.0  0.27261  0.54497  0.54259  1.0000
  H   H79       1.0  0.29469  0.47456  0.53866  1.0000
  H   H80       1.0  0.30035  0.54056  0.56311  1.0000
  N   N11       1.0  0.25908  0.45198  0.36775  1.0000
  C   C122      1.0  0.69927  0.56091  0.36700  1.0000
  C   C123      1.0  0.69490  0.54487  0.45176  1.0000
  C   C124      1.0  0.69050  0.51118  0.45783  1.0000
  O   O41       1.0  0.69241  0.56185  0.52855  1.0000
  O   O42       1.0  0.68668  0.49671  0.54085  1.0000
  H   H81       1.0  0.66393  0.56719  0.53456  1.0000
  H   H82       1.0  0.65909  0.50067  0.55953  1.0000
  N   N12       1.0  0.69851  0.59344  0.36615  1.0000
  C   C125      1.0  0.01198  0.32812  0.35885  1.0000
  C   C126      1.0  0.98792  0.30027  0.36646  1.0000
  C   C127      1.0  0.94562  0.30221  0.36516  1.0000
  C   C128      1.0  0.92576  0.33199  0.35609  1.0000
  O   O43       1.0  0.92426  0.27451  0.37293  1.0000
  H   H83       1.0  0.92108  0.27049  0.43816  1.0000
  O   O44       1.0  0.00520  0.27080  0.37357  1.0000
  H   H84       1.0  0.00742  0.26534  0.43859  1.0000
  N   N13       1.0  0.05239  0.32333  0.36202  1.0000
  N   N14       1.0  0.88489  0.33099  0.35399  1.0000
  C   C129      1.0  0.94605  0.71756  0.35905  1.0000
  C   C130      1.0  0.97028  0.74524  0.36653  1.0000
  C   C131      1.0  0.01254  0.74334  0.36521  1.0000
  C   C132      1.0  0.03220  0.71376  0.35623  1.0000
  O   O45       1.0  0.03408  0.77088  0.37288  1.0000
  H   H85       1.0  0.03860  0.77351  0.43812  1.0000
  O   O46       1.0  0.95315  0.77456  0.37357  1.0000
  H   H86       1.0  0.95224  0.77859  0.43857  1.0000
  N   N15       1.0  0.90571  0.72228  0.36223  1.0000
  N   N16       1.0  0.07303  0.71480  0.35411  1.0000
  C   C133      1.0  0.42637  0.34617  0.36296  1.0000
  C   C134      1.0  0.51238  0.34922  0.38518  1.0000
  C   C135      1.0  0.48705  0.34839  0.46073  1.0000
  C   C136      1.0  0.44483  0.34491  0.45021  1.0000
  O   O47       1.0  0.50325  0.35079  0.54562  1.0000
  O   O48       1.0  0.42187  0.34569  0.52476  1.0000
  H   H87       1.0  0.51018  0.32889  0.56635  1.0000
  H   H88       1.0  0.42216  0.32387  0.55147  1.0000
  N   N17       1.0  0.38591  0.34816  0.34759  1.0000
  N   N18       1.0  0.55261  0.35355  0.40022  1.0000
  C   C137      1.0  0.53174  0.69847  0.36368  1.0000
  C   C138      1.0  0.44617  0.69499  0.38565  1.0000
  C   C139      1.0  0.47310  0.69421  0.46127  1.0000
  C   C140      1.0  0.51510  0.69789  0.45086  1.0000
  O   O49       1.0  0.45866  0.69006  0.54613  1.0000
  O   O50       1.0  0.53962  0.69555  0.52550  1.0000
  H   H89       1.0  0.45223  0.71153  0.56669  1.0000
  H   H90       1.0  0.53989  0.71682  0.55200  1.0000
  N   N19       1.0  0.57189  0.69685  0.34844  1.0000
  N   N20       1.0  0.40623  0.69043  0.40061  1.0000
