data_image0
_chemical_formula_structural       C3NC3NC5NC5NC20H18N4C3NC3NC5NC5NC20H18N4C3NC3NC5NC5NC20H18N4CNCHCHCNCHCHCNCHCHCNCHCHCNCHCHCNCHCHC8H8C8H8C8H8C2NHCHC2NHCHC2NHCHC2NHCHC2NHCHC2NHCH
_chemical_formula_sum              "C168 N36 H102"
_cell_length_a       50.3648
_cell_length_b       50.3649
_cell_length_c       14.8107
_cell_angle_alpha    90.0974
_cell_angle_beta     89.9026
_cell_angle_gamma    120

_space_group_name_H-M_alt    "P 1"
_space_group_IT_number       1

loop_
  _space_group_symop_operation_xyz
  'x, y, z'

loop_
  _atom_site_type_symbol
  _atom_site_label
  _atom_site_symmetry_multiplicity
  _atom_site_fract_x
  _atom_site_fract_y
  _atom_site_fract_z
  _atom_site_occupancy
  C   C1        1.0  0.05365  0.65497  0.32703  1.0000
  C   C2        1.0  0.02195  0.63916  0.32715  1.0000
  C   C3        1.0  0.01183  0.60778  0.32679  1.0000
  N   N1        1.0  0.03771  0.60578  0.32666  1.0000
  C   C4        1.0  0.06366  0.63362  0.32684  1.0000
  C   C5        1.0  0.09487  0.64094  0.32661  1.0000
  C   C6        1.0  0.10475  0.61897  0.32654  1.0000
  N   N2        1.0  0.08738  0.58804  0.32672  1.0000
  C   C7        1.0  0.10466  0.57438  0.32664  1.0000
  C   C8        1.0  0.13514  0.59816  0.32621  1.0000
  C   C9        1.0  0.13519  0.62556  0.32647  1.0000
  C   C10       1.0  0.09466  0.54251  0.32685  1.0000
  C   C11       1.0  0.06342  0.51870  0.32686  1.0000
  N   N3        1.0  0.03754  0.52071  0.32666  1.0000
  C   C12       1.0  0.01160  0.49287  0.32689  1.0000
  C   C13       1.0  0.02160  0.47152  0.32716  1.0000
  C   C14       1.0  0.05331  0.48732  0.32730  1.0000
  C   C15       1.0  0.98039  0.48554  0.32662  1.0000
  C   C16       1.0  0.97051  0.50751  0.32653  1.0000
  N   N4        1.0  0.98788  0.53844  0.32667  1.0000
  C   C17       1.0  0.97060  0.55210  0.32661  1.0000
  C   C18       1.0  0.94012  0.52832  0.32625  1.0000
  C   C19       1.0  0.94006  0.50092  0.32652  1.0000
  C   C20       1.0  0.98059  0.58398  0.32681  1.0000
  C   C21       1.0  0.95728  0.59224  0.32749  1.0000
  C   C22       1.0  0.90424  0.59898  0.32688  1.0000
  C   C23       1.0  0.91930  0.59974  0.24556  1.0000
  C   C24       1.0  0.94539  0.59629  0.24561  1.0000
  C   C25       1.0  0.95701  0.45399  0.32620  1.0000
  C   C26       1.0  0.90415  0.39410  0.32699  1.0000
  C   C27       1.0  0.91649  0.40996  0.24490  1.0000
  C   C28       1.0  0.94255  0.43950  0.24448  1.0000
  C   C29       1.0  0.11797  0.53424  0.32758  1.0000
  C   C30       1.0  0.12975  0.52990  0.24572  1.0000
  C   C31       1.0  0.15578  0.52633  0.24567  1.0000
  C   C32       1.0  0.17079  0.52713  0.32696  1.0000
  C   C33       1.0  0.11826  0.67249  0.32613  1.0000
  C   C34       1.0  0.13276  0.68693  0.24441  1.0000
  C   C35       1.0  0.17126  0.73228  0.32696  1.0000
  C   C36       1.0  0.15889  0.71642  0.24484  1.0000
  H   H1        1.0  0.16935  0.72564  0.18467  1.0000
  H   H2        1.0  0.12517  0.67553  0.18432  1.0000
  H   H3        1.0  0.06696  0.67832  0.32713  1.0000
  H   H4        1.0  0.00871  0.64928  0.32739  1.0000
  H   H5        1.0  0.03768  0.58670  0.32636  1.0000
  H   H6        1.0  0.03758  0.53978  0.32624  1.0000
  H   H7        1.0  0.15456  0.64666  0.32648  1.0000
  H   H8        1.0  0.15445  0.59634  0.32587  1.0000
  H   H9        1.0  0.12023  0.53055  0.18537  1.0000
  H   H10       1.0  0.16431  0.52411  0.18510  1.0000
  H   H11       1.0  0.06655  0.47720  0.32762  1.0000
  H   H12       1.0  0.00830  0.44817  0.32733  1.0000
  H   H13       1.0  0.92081  0.53014  0.32599  1.0000
  H   H14       1.0  0.92070  0.47982  0.32660  1.0000
  H   H15       1.0  0.95014  0.45087  0.18440  1.0000
  H   H16       1.0  0.90610  0.40067  0.18472  1.0000
  H   H17       1.0  0.95494  0.59557  0.18524  1.0000
  H   H18       1.0  0.91069  0.60173  0.18498  1.0000
  N   N5        1.0  0.87842  0.36696  0.33358  1.0000
  N   N6        1.0  0.19654  0.52575  0.32035  1.0000
  N   N7        1.0  0.19713  0.75931  0.33357  1.0000
  N   N8        1.0  0.87838  0.60015  0.32030  1.0000
  C   C37       1.0  0.44532  0.48636  0.32633  1.0000
  C   C38       1.0  0.46113  0.47046  0.32640  1.0000
  C   C39       1.0  0.49251  0.49173  0.32597  1.0000
  N   N9        1.0  0.49451  0.51962  0.32583  1.0000
  C   C40       1.0  0.46667  0.51772  0.32610  1.0000
  C   C41       1.0  0.45934  0.54160  0.32587  1.0000
  C   C42       1.0  0.48130  0.57345  0.32574  1.0000
  N   N10       1.0  0.51223  0.58701  0.32589  1.0000
  C   C43       1.0  0.52589  0.61796  0.32577  1.0000
  C   C44       1.0  0.50211  0.62465  0.32537  1.0000
  C   C45       1.0  0.47471  0.59730  0.32566  1.0000
  C   C46       1.0  0.55776  0.63984  0.32598  1.0000
  C   C47       1.0  0.58157  0.63240  0.32599  1.0000
  N   N11       1.0  0.57957  0.60452  0.32581  1.0000
  C   C48       1.0  0.60741  0.60642  0.32609  1.0000
  C   C49       1.0  0.62876  0.63778  0.32636  1.0000
  C   C50       1.0  0.61295  0.65368  0.32647  1.0000
  C   C51       1.0  0.61474  0.58254  0.32585  1.0000
  C   C52       1.0  0.59278  0.55069  0.32570  1.0000
  N   N12       1.0  0.56185  0.53713  0.32583  1.0000
  C   C53       1.0  0.54819  0.50619  0.32572  1.0000
  C   C54       1.0  0.57197  0.49950  0.32537  1.0000
  C   C55       1.0  0.59937  0.52684  0.32567  1.0000
  C   C56       1.0  0.51631  0.48430  0.32592  1.0000
  C   C57       1.0  0.50806  0.45273  0.32660  1.0000
  C   C58       1.0  0.50129  0.39294  0.32598  1.0000
  C   C59       1.0  0.50055  0.40717  0.24465  1.0000
  C   C60       1.0  0.50398  0.43671  0.24470  1.0000
  C   C61       1.0  0.64629  0.59071  0.32549  1.0000
  C   C62       1.0  0.70620  0.59778  0.32661  1.0000
  C   C63       1.0  0.69037  0.59415  0.24444  1.0000
  C   C64       1.0  0.66083  0.59066  0.24387  1.0000
  C   C65       1.0  0.56603  0.67142  0.32669  1.0000
  C   C66       1.0  0.57037  0.68745  0.24482  1.0000
  C   C67       1.0  0.57394  0.71705  0.24475  1.0000
  C   C68       1.0  0.57311  0.73133  0.32604  1.0000
  C   C69       1.0  0.42779  0.53344  0.32553  1.0000
  C   C70       1.0  0.41330  0.53340  0.24387  1.0000
  C   C71       1.0  0.36801  0.52668  0.32664  1.0000
  C   C72       1.0  0.38383  0.53008  0.24445  1.0000
  H   H19       1.0  0.37457  0.53122  0.18432  1.0000
  H   H20       1.0  0.42468  0.53716  0.18373  1.0000
  H   H21       1.0  0.42196  0.47631  0.32649  1.0000
  H   H22       1.0  0.45101  0.44710  0.32665  1.0000
  H   H23       1.0  0.51358  0.53866  0.32545  1.0000
  H   H24       1.0  0.56049  0.58548  0.32541  1.0000
  H   H25       1.0  0.45361  0.59556  0.32572  1.0000
  H   H26       1.0  0.50393  0.64578  0.32504  1.0000
  H   H27       1.0  0.56971  0.67721  0.18447  1.0000
  H   H28       1.0  0.57614  0.72773  0.18419  1.0000
  H   H29       1.0  0.62306  0.67703  0.32677  1.0000
  H   H30       1.0  0.65211  0.64783  0.32654  1.0000
  H   H31       1.0  0.57016  0.47836  0.32506  1.0000
  H   H32       1.0  0.62047  0.52858  0.32576  1.0000
  H   H33       1.0  0.64948  0.58681  0.18374  1.0000
  H   H34       1.0  0.69969  0.59299  0.18432  1.0000
  H   H35       1.0  0.50470  0.44692  0.18435  1.0000
  H   H36       1.0  0.49851  0.39649  0.18409  1.0000
  N   N13       1.0  0.73332  0.59916  0.33335  1.0000
  N   N14       1.0  0.57449  0.75846  0.31943  1.0000
  N   N15       1.0  0.34097  0.52551  0.33337  1.0000
  N   N16       1.0  0.50011  0.36590  0.31939  1.0000
  C   C73       1.0  0.61391  0.04663  0.32586  1.0000
  C   C74       1.0  0.62981  0.07834  0.32601  1.0000
  C   C75       1.0  0.60854  0.08845  0.32556  1.0000
  N   N17       1.0  0.58066  0.06257  0.32535  1.0000
  C   C76       1.0  0.58255  0.03663  0.32558  1.0000
  C   C77       1.0  0.55867  0.00542  0.32531  1.0000
  C   C78       1.0  0.52682  0.99554  0.32521  1.0000
  N   N18       1.0  0.51326  0.01291  0.32542  1.0000
  C   C79       1.0  0.48232  0.99563  0.32537  1.0000
  C   C80       1.0  0.47562  0.96515  0.32493  1.0000
  C   C81       1.0  0.50296  0.96509  0.32515  1.0000
  C   C82       1.0  0.46044  0.00563  0.32564  1.0000
  C   C83       1.0  0.46788  0.03687  0.32561  1.0000
  N   N19       1.0  0.49576  0.06275  0.32537  1.0000
  C   C84       1.0  0.49387  0.08869  0.32559  1.0000
  C   C85       1.0  0.46251  0.07869  0.32590  1.0000
  C   C86       1.0  0.44661  0.04698  0.32607  1.0000
  C   C87       1.0  0.51775  0.11990  0.32531  1.0000
  C   C88       1.0  0.54960  0.12978  0.32520  1.0000
  N   N20       1.0  0.56316  0.11241  0.32538  1.0000
  C   C89       1.0  0.59410  0.12969  0.32531  1.0000
  C   C90       1.0  0.60080  0.16017  0.32493  1.0000
  C   C91       1.0  0.57345  0.16023  0.32516  1.0000
  C   C92       1.0  0.61598  0.11969  0.32557  1.0000
  C   C93       1.0  0.64755  0.14301  0.32634  1.0000
  C   C94       1.0  0.70733  0.19605  0.32606  1.0000
  C   C95       1.0  0.69316  0.18102  0.24466  1.0000
  C   C96       1.0  0.66363  0.15491  0.24455  1.0000
  C   C97       1.0  0.50959  0.14328  0.32489  1.0000
  C   C98       1.0  0.50251  0.19612  0.32589  1.0000
  C   C99       1.0  0.50615  0.18382  0.24376  1.0000
  C   C100      1.0  0.50962  0.15776  0.24323  1.0000
  C   C101      1.0  0.42886  0.98232  0.32646  1.0000
  C   C102      1.0  0.41278  0.97048  0.24469  1.0000
  C   C103      1.0  0.38317  0.94448  0.24480  1.0000
  C   C104      1.0  0.36894  0.92948  0.32616  1.0000
  C   C105      1.0  0.56682  0.98202  0.32490  1.0000
  C   C106      1.0  0.56683  0.96750  0.24322  1.0000
  C   C107      1.0  0.57358  0.92900  0.32589  1.0000
  C   C108      1.0  0.57018  0.94136  0.24374  1.0000
  H   H37       1.0  0.56905  0.93092  0.18358  1.0000
  H   H38       1.0  0.56310  0.97509  0.18310  1.0000
  H   H39       1.0  0.62395  0.03332  0.32601  1.0000
  H   H40       1.0  0.65317  0.09158  0.32630  1.0000
  H   H41       1.0  0.56162  0.06261  0.32494  1.0000
  H   H42       1.0  0.51480  0.06271  0.32496  1.0000
  H   H43       1.0  0.50470  0.94573  0.32517  1.0000
  H   H44       1.0  0.45448  0.94584  0.32462  1.0000
  H   H45       1.0  0.42296  0.98002  0.18429  1.0000
  H   H46       1.0  0.37245  0.93592  0.18429  1.0000
  H   H47       1.0  0.42325  0.03374  0.32641  1.0000
  H   H48       1.0  0.45247  0.09199  0.32606  1.0000
  H   H49       1.0  0.62193  0.17948  0.32464  1.0000
  H   H50       1.0  0.57172  0.17959  0.32522  1.0000
  H   H51       1.0  0.51352  0.15022  0.18313  1.0000
  H   H52       1.0  0.50735  0.19426  0.18363  1.0000
  H   H53       1.0  0.65345  0.14538  0.18413  1.0000
  H   H54       1.0  0.70387  0.18963  0.18414  1.0000
  N   N21       1.0  0.50112  0.22186  0.33258  1.0000
  N   N22       1.0  0.34181  0.90373  0.31971  1.0000
  N   N23       1.0  0.57476  0.90316  0.33258  1.0000
  N   N24       1.0  0.73438  0.22190  0.31964  1.0000
  C   C109      1.0  0.27390  0.52370  0.23615  1.0000
  N   N25       1.0  0.24842  0.52402  0.26470  1.0000
  C   C110      1.0  0.29486  0.52421  0.30053  1.0000
  H   H55       1.0  0.27756  0.52330  0.16837  1.0000
  C   C111      1.0  0.32156  0.52453  0.27509  1.0000
  H   H56       1.0  0.32590  0.52445  0.20967  1.0000
  C   C112      1.0  0.57654  0.83779  0.23528  1.0000
  N   N26       1.0  0.57621  0.81201  0.26382  1.0000
  C   C113      1.0  0.57605  0.85831  0.29968  1.0000
  H   H57       1.0  0.57694  0.84178  0.16751  1.0000
  C   C114      1.0  0.57573  0.88466  0.27427  1.0000
  H   H58       1.0  0.57578  0.88902  0.20885  1.0000
  C   C115      1.0  0.26241  0.82636  0.23598  1.0000
  N   N27       1.0  0.28822  0.85185  0.26439  1.0000
  C   C116      1.0  0.24195  0.80541  0.30048  1.0000
  H   H59       1.0  0.25837  0.82270  0.16823  1.0000
  C   C117      1.0  0.21557  0.77872  0.27519  1.0000
  H   H60       1.0  0.21115  0.77437  0.20979  1.0000
  C   C118      1.0  0.80070  0.60141  0.23611  1.0000
  N   N28       1.0  0.82629  0.60134  0.26466  1.0000
  C   C119      1.0  0.77963  0.60080  0.30049  1.0000
  H   H61       1.0  0.79706  0.60171  0.16833  1.0000
  C   C120      1.0  0.75284  0.60024  0.27506  1.0000
  H   H62       1.0  0.74852  0.60024  0.20964  1.0000
  C   C121      1.0  0.49884  0.28686  0.23526  1.0000
  N   N29       1.0  0.49891  0.31255  0.26379  1.0000
  C   C122      1.0  0.49946  0.26648  0.29967  1.0000
  H   H63       1.0  0.49856  0.28286  0.16749  1.0000
  C   C123      1.0  0.50005  0.24024  0.27427  1.0000
  H   H64       1.0  0.50006  0.23585  0.20885  1.0000
  C   C124      1.0  0.81346  0.29961  0.23594  1.0000
  N   N30       1.0  0.78776  0.27401  0.26433  1.0000
  C   C125      1.0  0.83382  0.32066  0.30044  1.0000
  H   H65       1.0  0.81751  0.30329  0.16817  1.0000
  C   C126      1.0  0.86007  0.34747  0.27517  1.0000
  H   H66       1.0  0.86447  0.35184  0.20977  1.0000
  C   C127      1.0  0.94269  0.59209  0.40922  1.0000
  C   C128      1.0  0.91657  0.59545  0.40891  1.0000
  C   C129      1.0  0.94507  0.43809  0.40816  1.0000
  C   C130      1.0  0.91903  0.40851  0.40831  1.0000
  C   C131      1.0  0.15858  0.53098  0.40896  1.0000
  C   C132      1.0  0.13255  0.53451  0.40928  1.0000
  C   C133      1.0  0.13022  0.68839  0.40813  1.0000
  C   C134      1.0  0.15633  0.71793  0.40829  1.0000
  H   H67       1.0  0.16500  0.72851  0.46891  1.0000
  H   H68       1.0  0.12074  0.67811  0.46847  1.0000
  H   H69       1.0  0.12504  0.53852  0.46927  1.0000
  H   H70       1.0  0.16903  0.53227  0.46912  1.0000
  H   H71       1.0  0.95455  0.44841  0.46849  1.0000
  H   H72       1.0  0.91043  0.39790  0.46892  1.0000
  H   H73       1.0  0.90607  0.59416  0.46909  1.0000
  H   H74       1.0  0.95022  0.58820  0.46924  1.0000
  C   C135      1.0  0.50820  0.43838  0.40835  1.0000
  C   C136      1.0  0.50486  0.40890  0.40801  1.0000
  C   C137      1.0  0.66216  0.59477  0.40754  1.0000
  C   C138      1.0  0.69174  0.59831  0.40784  1.0000
  C   C139      1.0  0.56928  0.71536  0.40805  1.0000
  C   C140      1.0  0.56578  0.68581  0.40839  1.0000
  C   C141      1.0  0.41192  0.52958  0.40760  1.0000
  C   C142      1.0  0.38239  0.52616  0.40789  1.0000
  H   H75       1.0  0.37182  0.52430  0.46856  1.0000
  H   H76       1.0  0.42223  0.53046  0.46788  1.0000
  H   H77       1.0  0.56173  0.67435  0.46838  1.0000
  H   H78       1.0  0.56796  0.72457  0.46820  1.0000
  H   H79       1.0  0.65181  0.59395  0.46782  1.0000
  H   H80       1.0  0.70231  0.60035  0.46851  1.0000
  H   H81       1.0  0.50610  0.39973  0.46820  1.0000
  H   H82       1.0  0.51210  0.44986  0.46834  1.0000
  C   C143      1.0  0.66185  0.15756  0.40816  1.0000
  C   C144      1.0  0.69134  0.18369  0.40801  1.0000
  C   C145      1.0  0.50552  0.15518  0.40692  1.0000
  C   C146      1.0  0.50193  0.18119  0.40716  1.0000
  C   C147      1.0  0.38496  0.94174  0.40809  1.0000
  C   C148      1.0  0.41452  0.96777  0.40823  1.0000
  C   C149      1.0  0.57070  0.97009  0.40694  1.0000
  C   C150      1.0  0.57408  0.94396  0.40718  1.0000
  H   H83       1.0  0.57598  0.93533  0.46782  1.0000
  H   H84       1.0  0.56982  0.97959  0.46724  1.0000
  H   H85       1.0  0.42601  0.97529  0.46817  1.0000
  H   H86       1.0  0.37580  0.93129  0.46829  1.0000
  H   H87       1.0  0.50628  0.14568  0.46721  1.0000
  H   H88       1.0  0.49988  0.18979  0.46780  1.0000
  H   H89       1.0  0.70047  0.19415  0.46825  1.0000
  H   H90       1.0  0.65035  0.15001  0.46811  1.0000
  C   C151      1.0  0.24148  0.52469  0.35330  1.0000
  C   C152      1.0  0.26241  0.52515  0.41768  1.0000
  N   N31       1.0  0.28797  0.52497  0.38912  1.0000
  H   H91       1.0  0.25891  0.52585  0.48544  1.0000
  C   C153      1.0  0.21534  0.52548  0.37868  1.0000
  H   H92       1.0  0.21141  0.52637  0.44406  1.0000
  C   C154      1.0  0.57555  0.80449  0.35241  1.0000
  C   C155      1.0  0.57511  0.82503  0.41681  1.0000
  N   N32       1.0  0.57531  0.85074  0.38827  1.0000
  H   H93       1.0  0.57443  0.82090  0.48457  1.0000
  C   C156      1.0  0.57477  0.77758  0.37777  1.0000
  H   H94       1.0  0.57390  0.77284  0.44315  1.0000
  C   C157      1.0  0.29581  0.85880  0.35294  1.0000
  C   C158      1.0  0.27532  0.83788  0.41743  1.0000
  N   N33       1.0  0.24959  0.81232  0.38902  1.0000
  H   H95       1.0  0.27951  0.84139  0.48517  1.0000
  C   C159      1.0  0.32274  0.88494  0.37816  1.0000
  H   H96       1.0  0.32754  0.88888  0.44352  1.0000
  C   C160      1.0  0.83322  0.60083  0.35326  1.0000
  C   C161      1.0  0.81217  0.60026  0.41764  1.0000
  N   N34       1.0  0.78652  0.60020  0.38909  1.0000
  H   H97       1.0  0.81567  0.59968  0.48541  1.0000
  C   C162      1.0  0.85947  0.60030  0.37863  1.0000
  H   H98       1.0  0.86338  0.59950  0.44401  1.0000
  C   C163      1.0  0.49941  0.32008  0.35238  1.0000
  C   C164      1.0  0.49997  0.29967  0.41679  1.0000
  N   N35       1.0  0.50005  0.27406  0.38825  1.0000
  H   H99       1.0  0.50056  0.30383  0.48455  1.0000
  C   C165      1.0  0.49995  0.34689  0.37774  1.0000
  H   H100      1.0  0.50075  0.35168  0.44312  1.0000
  C   C166      1.0  0.78018  0.26703  0.35288  1.0000
  C   C167      1.0  0.80055  0.28806  0.41739  1.0000
  N   N36       1.0  0.82619  0.31372  0.38900  1.0000
  H   H101      1.0  0.79637  0.28453  0.48514  1.0000
  C   C168      1.0  0.75336  0.24078  0.37809  1.0000
  H   H102      1.0  0.74854  0.23683  0.44345  1.0000
