data_image0
_chemical_formula_structural       C2NC2HNCHC2NC2HNCHC2NC2HNCHC2NC2HNCHC2NC2HNCHC2NC2HNCHC2HC3N2HC2HC3N2HC2HC3N2HC2HC3N2HC2HC3N2HC2HC3N2HC2HC3N2HC2HC3N2HC2HC3N2HC2HC3N2HC2HC3N2HC2HC3N2HCNCNCNCNCNCNCNCNCNCNCNCNCNCNCNCNCNCNCNCNCNCNCNCNCNCNCNCNCNCNCNCNCNCNCNCNC2HC3N2HC2HC3N2HC2HC3N2HC2HC3N2HC2HC3N2HC2HC3N2HC2NC2HNCHC2NC2HNCHC2NC2HNCHC2NC2HNCHC2NC2HNCHC2NC2HNCHC2NC2HNCHC2NC2HNCHC2NC2HNCHC2NC2HNCHC2NC2HNCHC2NC2HNCH
_chemical_formula_sum              "C216 N108 H72"
_cell_length_a       55.5597
_cell_length_b       55.5596
_cell_length_c       14.888
_cell_angle_alpha    90
_cell_angle_beta     90
_cell_angle_gamma    120

_space_group_name_H-M_alt    "P 1"
_space_group_IT_number       1

loop_
  _space_group_symop_operation_xyz
  'x, y, z'

loop_
  _atom_site_type_symbol
  _atom_site_label
  _atom_site_symmetry_multiplicity
  _atom_site_fract_x
  _atom_site_fract_y
  _atom_site_fract_z
  _atom_site_occupancy
  C   C1        1.0  0.23678  0.46597  0.34182  1.0000
  C   C2        1.0  0.22929  0.45100  0.26016  1.0000
  N   N1        1.0  0.21515  0.42273  0.26059  1.0000
  C   C3        1.0  0.20749  0.40739  0.33737  1.0000
  C   C4        1.0  0.19280  0.37801  0.33702  1.0000
  H   H1        1.0  0.23435  0.46114  0.19981  1.0000
  N   N2        1.0  0.18520  0.36285  0.25989  1.0000
  C   C5        1.0  0.17106  0.33458  0.25880  1.0000
  H   H2        1.0  0.16604  0.32457  0.19822  1.0000
  C   C6        1.0  0.53759  0.76680  0.34185  1.0000
  C   C7        1.0  0.55256  0.77428  0.26019  1.0000
  N   N3        1.0  0.58083  0.78842  0.26061  1.0000
  C   C8        1.0  0.59617  0.79610  0.33739  1.0000
  C   C9        1.0  0.62554  0.81080  0.33703  1.0000
  H   H3        1.0  0.54242  0.76921  0.19984  1.0000
  N   N4        1.0  0.64071  0.81837  0.25990  1.0000
  C   C10       1.0  0.66898  0.83251  0.25881  1.0000
  H   H4        1.0  0.67899  0.83751  0.19822  1.0000
  C   C11       1.0  0.23674  0.76683  0.34180  1.0000
  C   C12       1.0  0.22928  0.77434  0.26014  1.0000
  N   N5        1.0  0.21514  0.78847  0.26058  1.0000
  C   C13       1.0  0.20745  0.79611  0.33735  1.0000
  C   C14       1.0  0.19276  0.81080  0.33701  1.0000
  H   H5        1.0  0.23437  0.76929  0.19979  1.0000
  N   N6        1.0  0.18519  0.81841  0.25988  1.0000
  C   C15       1.0  0.17106  0.83254  0.25879  1.0000
  H   H6        1.0  0.16607  0.83756  0.19821  1.0000
  C   C16       1.0  0.77064  0.53377  0.34185  1.0000
  C   C17       1.0  0.77815  0.54874  0.26019  1.0000
  N   N7        1.0  0.79228  0.57700  0.26061  1.0000
  C   C18       1.0  0.79992  0.59234  0.33739  1.0000
  C   C19       1.0  0.81461  0.62172  0.33703  1.0000
  H   H7        1.0  0.77310  0.53859  0.19984  1.0000
  N   N8        1.0  0.82222  0.63689  0.25990  1.0000
  C   C20       1.0  0.83635  0.66516  0.25881  1.0000
  H   H8        1.0  0.84138  0.67517  0.19822  1.0000
  C   C21       1.0  0.46981  0.23290  0.34183  1.0000
  C   C22       1.0  0.45484  0.22543  0.26017  1.0000
  N   N9        1.0  0.42657  0.21130  0.26060  1.0000
  C   C23       1.0  0.41123  0.20362  0.33737  1.0000
  C   C24       1.0  0.38185  0.18893  0.33702  1.0000
  H   H9        1.0  0.46498  0.23051  0.19982  1.0000
  N   N10       1.0  0.36669  0.18136  0.25989  1.0000
  C   C25       1.0  0.33842  0.16723  0.25880  1.0000
  H   H10       1.0  0.32841  0.16224  0.19821  1.0000
  C   C26       1.0  0.77063  0.23292  0.34177  1.0000
  C   C27       1.0  0.77810  0.22541  0.26012  1.0000
  N   N11       1.0  0.79223  0.21128  0.26056  1.0000
  C   C28       1.0  0.79993  0.20363  0.33733  1.0000
  C   C29       1.0  0.81462  0.18895  0.33699  1.0000
  H   H11       1.0  0.77301  0.23046  0.19977  1.0000
  N   N12       1.0  0.82219  0.18134  0.25987  1.0000
  C   C30       1.0  0.83632  0.16721  0.25878  1.0000
  H   H12       1.0  0.84131  0.16219  0.19820  1.0000
  C   C31       1.0  0.18548  0.21047  0.26106  1.0000
  C   C32       1.0  0.17083  0.22512  0.25969  1.0000
  H   H13       1.0  0.16557  0.23008  0.19936  1.0000
  C   C33       1.0  0.23676  0.15965  0.34099  1.0000
  C   C34       1.0  0.22897  0.16700  0.25969  1.0000
  C   C35       1.0  0.21432  0.18165  0.26106  1.0000
  N   N13       1.0  0.20651  0.18906  0.18419  1.0000
  N   N14       1.0  0.19289  0.20267  0.18419  1.0000
  H   H14       1.0  0.23392  0.16173  0.19936  1.0000
  C   C36       1.0  0.79309  0.97105  0.26106  1.0000
  C   C37       1.0  0.77844  0.94175  0.25970  1.0000
  H   H15       1.0  0.77348  0.93153  0.19936  1.0000
  C   C38       1.0  0.84392  0.07315  0.34099  1.0000
  C   C39       1.0  0.83657  0.05801  0.25969  1.0000
  C   C40       1.0  0.82192  0.02871  0.26106  1.0000
  N   N15       1.0  0.81451  0.01350  0.18419  1.0000
  N   N16       1.0  0.80090  0.98627  0.18420  1.0000
  H   H16       1.0  0.84184  0.06823  0.19936  1.0000
  C   C41       1.0  0.03251  0.81809  0.26106  1.0000
  C   C42       1.0  0.06181  0.83274  0.25970  1.0000
  H   H17       1.0  0.07203  0.83800  0.19937  1.0000
  C   C43       1.0  0.93041  0.76682  0.34099  1.0000
  C   C44       1.0  0.94555  0.77461  0.25969  1.0000
  C   C45       1.0  0.97485  0.78926  0.26106  1.0000
  N   N17       1.0  0.99007  0.79706  0.18419  1.0000
  N   N18       1.0  0.01729  0.81068  0.18419  1.0000
  H   H18       1.0  0.93533  0.76965  0.19936  1.0000
  C   C46       1.0  0.82191  0.78926  0.26106  1.0000
  C   C47       1.0  0.83656  0.77462  0.25970  1.0000
  H   H19       1.0  0.84182  0.76966  0.19937  1.0000
  C   C48       1.0  0.77064  0.84010  0.34099  1.0000
  C   C49       1.0  0.77843  0.83275  0.25969  1.0000
  C   C50       1.0  0.79308  0.81810  0.26106  1.0000
  N   N19       1.0  0.80089  0.81069  0.18419  1.0000
  N   N20       1.0  0.81450  0.79707  0.18419  1.0000
  H   H20       1.0  0.77348  0.83802  0.19936  1.0000
  C   C51       1.0  0.21431  0.02870  0.26106  1.0000
  C   C52       1.0  0.22896  0.05800  0.25969  1.0000
  H   H21       1.0  0.23392  0.06822  0.19936  1.0000
  C   C53       1.0  0.16346  0.92659  0.34099  1.0000
  C   C54       1.0  0.17081  0.94174  0.25969  1.0000
  C   C55       1.0  0.18547  0.97104  0.26106  1.0000
  N   N21       1.0  0.19288  0.98625  0.18419  1.0000
  N   N22       1.0  0.20650  0.01348  0.18419  1.0000
  H   H22       1.0  0.16555  0.93152  0.19936  1.0000
  C   C56       1.0  0.97487  0.18166  0.26107  1.0000
  C   C57       1.0  0.94558  0.16701  0.25971  1.0000
  H   H23       1.0  0.93536  0.16174  0.19938  1.0000
  C   C58       1.0  0.07698  0.23292  0.34099  1.0000
  C   C59       1.0  0.06183  0.22513  0.25969  1.0000
  C   C60       1.0  0.03254  0.21048  0.26106  1.0000
  N   N23       1.0  0.01732  0.20268  0.18420  1.0000
  N   N24       1.0  0.99009  0.18906  0.18420  1.0000
  H   H24       1.0  0.07205  0.23008  0.19936  1.0000
  C   C61       1.0  0.23488  0.64038  0.25947  1.0000
  C   C62       1.0  0.23808  0.66717  0.25887  1.0000
  H   H25       1.0  0.24229  0.67779  0.19936  1.0000
  C   C63       1.0  0.23875  0.55426  0.34021  1.0000
  C   C64       1.0  0.23798  0.56689  0.25865  1.0000
  C   C65       1.0  0.23484  0.59052  0.25938  1.0000
  N   N25       1.0  0.23668  0.60459  0.18269  1.0000
  N   N26       1.0  0.23670  0.62816  0.18273  1.0000
  H   H26       1.0  0.24231  0.56058  0.19916  1.0000
  C   C66       1.0  0.36322  0.59052  0.25932  1.0000
  C   C67       1.0  0.33645  0.56691  0.25857  1.0000
  H   H27       1.0  0.32580  0.56058  0.19909  1.0000
  C   C68       1.0  0.44926  0.68049  0.34045  1.0000
  C   C69       1.0  0.43669  0.66714  0.25877  1.0000
  C   C70       1.0  0.41308  0.64037  0.25943  1.0000
  N   N27       1.0  0.39903  0.62816  0.18270  1.0000
  N   N28       1.0  0.37546  0.60460  0.18265  1.0000
  H   H28       1.0  0.44303  0.67781  0.19932  1.0000
  C   C71       1.0  0.41306  0.76876  0.25917  1.0000
  C   C72       1.0  0.43667  0.76558  0.25844  1.0000
  H   H29       1.0  0.44306  0.76135  0.19895  1.0000
  C   C73       1.0  0.32305  0.76481  0.34021  1.0000
  C   C74       1.0  0.33644  0.76559  0.25863  1.0000
  C   C75       1.0  0.36322  0.76876  0.25926  1.0000
  N   N29       1.0  0.37546  0.76698  0.18251  1.0000
  N   N30       1.0  0.39902  0.76698  0.18247  1.0000
  H   H30       1.0  0.32581  0.76138  0.19914  1.0000
  C   C76       1.0  0.77253  0.35935  0.25939  1.0000
  C   C77       1.0  0.76935  0.33256  0.25881  1.0000
  H   H31       1.0  0.76510  0.32191  0.19936  1.0000
  C   C78       1.0  0.76864  0.44545  0.33997  1.0000
  C   C79       1.0  0.76938  0.43281  0.25843  1.0000
  C   C80       1.0  0.77256  0.40921  0.25918  1.0000
  N   N31       1.0  0.77072  0.39513  0.18253  1.0000
  N   N32       1.0  0.77071  0.37156  0.18263  1.0000
  H   H32       1.0  0.76511  0.43918  0.19894  1.0000
  C   C81       1.0  0.64422  0.40922  0.25943  1.0000
  C   C82       1.0  0.67101  0.43280  0.25878  1.0000
  H   H33       1.0  0.68164  0.43920  0.19929  1.0000
  C   C83       1.0  0.55811  0.31922  0.34024  1.0000
  C   C84       1.0  0.57073  0.33262  0.25867  1.0000
  C   C85       1.0  0.59436  0.35939  0.25939  1.0000
  N   N33       1.0  0.60842  0.37161  0.18269  1.0000
  N   N34       1.0  0.63199  0.39517  0.18271  1.0000
  H   H34       1.0  0.56442  0.32197  0.19919  1.0000
  C   C86       1.0  0.59435  0.23100  0.25928  1.0000
  C   C87       1.0  0.57073  0.23416  0.25854  1.0000
  H   H35       1.0  0.56441  0.23848  0.19907  1.0000
  C   C88       1.0  0.68432  0.23492  0.34036  1.0000
  C   C89       1.0  0.67097  0.23414  0.25867  1.0000
  C   C90       1.0  0.64419  0.23099  0.25934  1.0000
  N   N35       1.0  0.63198  0.23283  0.18263  1.0000
  N   N36       1.0  0.60842  0.23283  0.18259  1.0000
  H   H36       1.0  0.68163  0.23847  0.19922  1.0000
  C   C91       1.0  0.14884  0.24757  0.34086  1.0000
  N   N37       1.0  0.16281  0.27583  0.34039  1.0000
  C   C92       1.0  0.14884  0.29014  0.34003  1.0000
  N   N38       1.0  0.12058  0.27584  0.34038  1.0000
  C   C93       1.0  0.10627  0.24757  0.34085  1.0000
  N   N39       1.0  0.12058  0.23361  0.34102  1.0000
  C   C94       1.0  0.75599  0.89732  0.34086  1.0000
  N   N40       1.0  0.72772  0.88301  0.34039  1.0000
  C   C95       1.0  0.71342  0.85475  0.34003  1.0000
  N   N41       1.0  0.72772  0.84078  0.34038  1.0000
  C   C96       1.0  0.75599  0.85475  0.34085  1.0000
  N   N42       1.0  0.76995  0.88301  0.34102  1.0000
  C   C97       1.0  0.10625  0.85473  0.34087  1.0000
  N   N43       1.0  0.12055  0.84077  0.34039  1.0000
  C   C98       1.0  0.14881  0.85473  0.34003  1.0000
  N   N44       1.0  0.16278  0.88300  0.34037  1.0000
  C   C99       1.0  0.14882  0.89730  0.34085  1.0000
  N   N45       1.0  0.12055  0.88300  0.34103  1.0000
  C   C100      1.0  0.85854  0.75217  0.34086  1.0000
  N   N46       1.0  0.84458  0.72390  0.34040  1.0000
  C   C101      1.0  0.85855  0.70960  0.34003  1.0000
  N   N47       1.0  0.88681  0.72390  0.34037  1.0000
  C   C102      1.0  0.90111  0.75216  0.34084  1.0000
  N   N48       1.0  0.88681  0.76613  0.34102  1.0000
  C   C103      1.0  0.25141  0.10243  0.34086  1.0000
  N   N49       1.0  0.27967  0.11673  0.34039  1.0000
  C   C104      1.0  0.29398  0.14500  0.34003  1.0000
  N   N50       1.0  0.27968  0.15896  0.34038  1.0000
  C   C105      1.0  0.25141  0.14500  0.34085  1.0000
  N   N51       1.0  0.23745  0.11674  0.34102  1.0000
  C   C106      1.0  0.90114  0.14502  0.34087  1.0000
  N   N52       1.0  0.88684  0.15898  0.34039  1.0000
  C   C107      1.0  0.85857  0.14502  0.34003  1.0000
  N   N53       1.0  0.84461  0.11675  0.34037  1.0000
  C   C108      1.0  0.85857  0.10245  0.34085  1.0000
  N   N54       1.0  0.88683  0.11675  0.34103  1.0000
  C   C109      1.0  0.29394  0.53777  0.34196  1.0000
  N   N55       1.0  0.27977  0.50951  0.34209  1.0000
  C   C110      1.0  0.25142  0.49526  0.34234  1.0000
  N   N56       1.0  0.23730  0.50948  0.34210  1.0000
  C   C111      1.0  0.25137  0.53775  0.34200  1.0000
  N   N57       1.0  0.27949  0.55145  0.34157  1.0000
  C   C112      1.0  0.46580  0.75219  0.34189  1.0000
  N   N58       1.0  0.49406  0.76627  0.34202  1.0000
  C   C113      1.0  0.50830  0.75216  0.34236  1.0000
  N   N59       1.0  0.49406  0.72381  0.34222  1.0000
  C   C114      1.0  0.46580  0.70963  0.34207  1.0000
  N   N60       1.0  0.45210  0.72406  0.34159  1.0000
  C   C115      1.0  0.25136  0.70966  0.34212  1.0000
  N   N61       1.0  0.23727  0.72383  0.34219  1.0000
  C   C116      1.0  0.25138  0.75218  0.34232  1.0000
  N   N62       1.0  0.27973  0.76630  0.34204  1.0000
  C   C117      1.0  0.29391  0.75221  0.34202  1.0000
  N   N63       1.0  0.27948  0.72409  0.34169  1.0000
  C   C118      1.0  0.71347  0.46197  0.34209  1.0000
  N   N64       1.0  0.72764  0.49024  0.34224  1.0000
  C   C119      1.0  0.75599  0.50448  0.34236  1.0000
  N   N65       1.0  0.77011  0.49025  0.34200  1.0000
  C   C120      1.0  0.75603  0.46198  0.34187  1.0000
  N   N66       1.0  0.72791  0.44828  0.34156  1.0000
  C   C121      1.0  0.54161  0.24754  0.34195  1.0000
  N   N67       1.0  0.51335  0.23345  0.34208  1.0000
  C   C122      1.0  0.49910  0.24755  0.34235  1.0000
  N   N68       1.0  0.51333  0.27590  0.34214  1.0000
  C   C123      1.0  0.54159  0.29009  0.34204  1.0000
  N   N69       1.0  0.55529  0.27567  0.34159  1.0000
  C   C124      1.0  0.75601  0.29009  0.34205  1.0000
  N   N70       1.0  0.77010  0.27591  0.34214  1.0000
  C   C125      1.0  0.75599  0.24756  0.34229  1.0000
  N   N71       1.0  0.72764  0.23345  0.34205  1.0000
  C   C126      1.0  0.71346  0.24753  0.34198  1.0000
  N   N72       1.0  0.72789  0.27566  0.34168  1.0000
  C   C127      1.0  0.21453  0.42144  0.42119  1.0000
  C   C128      1.0  0.22918  0.45073  0.42293  1.0000
  H   H37       1.0  0.23426  0.46088  0.48339  1.0000
  C   C129      1.0  0.16349  0.31943  0.34010  1.0000
  C   C130      1.0  0.17104  0.33449  0.42156  1.0000
  C   C131      1.0  0.18569  0.36379  0.42051  1.0000
  N   N73       1.0  0.19327  0.37892  0.49756  1.0000
  N   N74       1.0  0.20688  0.40614  0.49789  1.0000
  H   H38       1.0  0.16591  0.32421  0.48179  1.0000
  C   C132      1.0  0.58212  0.78908  0.42121  1.0000
  C   C133      1.0  0.55283  0.77443  0.42296  1.0000
  H   H39       1.0  0.54268  0.76936  0.48342  1.0000
  C   C134      1.0  0.68413  0.84010  0.34010  1.0000
  C   C135      1.0  0.66907  0.83258  0.42157  1.0000
  C   C136      1.0  0.63978  0.81792  0.42052  1.0000
  N   N75       1.0  0.62465  0.81037  0.49758  1.0000
  N   N76       1.0  0.59742  0.79675  0.49791  1.0000
  H   H40       1.0  0.67935  0.83773  0.48180  1.0000
  C   C137      1.0  0.21445  0.78907  0.42117  1.0000
  C   C138      1.0  0.22909  0.77442  0.42291  1.0000
  H   H41       1.0  0.23415  0.76933  0.48338  1.0000
  C   C139      1.0  0.16346  0.84009  0.34009  1.0000
  C   C140      1.0  0.17097  0.83253  0.42156  1.0000
  C   C141      1.0  0.18562  0.81789  0.42050  1.0000
  N   N77       1.0  0.19316  0.81030  0.49755  1.0000
  N   N78       1.0  0.20677  0.79669  0.49787  1.0000
  H   H42       1.0  0.16581  0.83766  0.48179  1.0000
  C   C142      1.0  0.79287  0.57830  0.42121  1.0000
  C   C143      1.0  0.77822  0.54901  0.42296  1.0000
  H   H43       1.0  0.77313  0.53886  0.48342  1.0000
  C   C144      1.0  0.84390  0.68031  0.34010  1.0000
  C   C145      1.0  0.83634  0.66525  0.42157  1.0000
  C   C146      1.0  0.82170  0.63595  0.42052  1.0000
  N   N79       1.0  0.81411  0.62082  0.49758  1.0000
  N   N80       1.0  0.80050  0.59360  0.49791  1.0000
  H   H44       1.0  0.84146  0.67553  0.48180  1.0000
  C   C147      1.0  0.42528  0.21062  0.42119  1.0000
  C   C148      1.0  0.45457  0.22527  0.42294  1.0000
  H   H45       1.0  0.46472  0.23033  0.48340  1.0000
  C   C149      1.0  0.32327  0.15964  0.34010  1.0000
  C   C150      1.0  0.33833  0.16716  0.42156  1.0000
  C   C151      1.0  0.36762  0.18180  0.42051  1.0000
  N   N81       1.0  0.38275  0.18935  0.49756  1.0000
  N   N82       1.0  0.40998  0.20296  0.49789  1.0000
  H   H46       1.0  0.32805  0.16201  0.48179  1.0000
  C   C152      1.0  0.79293  0.21068  0.42115  1.0000
  C   C153      1.0  0.77828  0.22533  0.42289  1.0000
  H   H47       1.0  0.77322  0.23042  0.48335  1.0000
  C   C154      1.0  0.84392  0.15966  0.34009  1.0000
  C   C155      1.0  0.83641  0.16722  0.42154  1.0000
  C   C156      1.0  0.82176  0.18186  0.42049  1.0000
  N   N83       1.0  0.81422  0.18945  0.49754  1.0000
  N   N84       1.0  0.80060  0.20305  0.49785  1.0000
  H   H48       1.0  0.84157  0.16209  0.48178  1.0000
  C   C157      1.0  0.16348  0.23292  0.34100  1.0000
  C   C158      1.0  0.17123  0.22560  0.42245  1.0000
  N   N85       1.0  0.18535  0.21145  0.42166  1.0000
  C   C159      1.0  0.19277  0.20362  0.34470  1.0000
  C   C160      1.0  0.20746  0.18893  0.34470  1.0000
  H   H49       1.0  0.16636  0.23079  0.48293  1.0000
  N   N86       1.0  0.21529  0.18151  0.42166  1.0000
  C   C161      1.0  0.22944  0.16739  0.42244  1.0000
  H   H50       1.0  0.23463  0.16252  0.48292  1.0000
  C   C162      1.0  0.77064  0.92661  0.34100  1.0000
  C   C163      1.0  0.77796  0.94168  0.42246  1.0000
  N   N87       1.0  0.79211  0.96994  0.42166  1.0000
  C   C164      1.0  0.79994  0.98519  0.34470  1.0000
  C   C165      1.0  0.81464  0.01457  0.34470  1.0000
  H   H51       1.0  0.77277  0.93161  0.48293  1.0000
  N   N88       1.0  0.82205  0.02982  0.42166  1.0000
  C   C166      1.0  0.83618  0.05809  0.42245  1.0000
  H   H52       1.0  0.84105  0.06816  0.48293  1.0000
  C   C167      1.0  0.07695  0.84009  0.34101  1.0000
  C   C168      1.0  0.06188  0.83234  0.42246  1.0000
  N   N89       1.0  0.03362  0.81822  0.42166  1.0000
  C   C169      1.0  0.01837  0.81080  0.34470  1.0000
  C   C170      1.0  0.98899  0.79611  0.34470  1.0000
  H   H53       1.0  0.07195  0.83722  0.48293  1.0000
  N   N90       1.0  0.97374  0.78828  0.42166  1.0000
  C   C171      1.0  0.94547  0.77414  0.42244  1.0000
  H   H54       1.0  0.93540  0.76894  0.48292  1.0000
  C   C172      1.0  0.84390  0.76682  0.34101  1.0000
  C   C173      1.0  0.83616  0.77414  0.42246  1.0000
  N   N91       1.0  0.82204  0.78829  0.42166  1.0000
  C   C174      1.0  0.81462  0.79612  0.34470  1.0000
  C   C175      1.0  0.79993  0.81081  0.34470  1.0000
  H   H55       1.0  0.84103  0.76894  0.48293  1.0000
  N   N92       1.0  0.79210  0.81823  0.42166  1.0000
  C   C176      1.0  0.77796  0.83236  0.42244  1.0000
  H   H56       1.0  0.77277  0.83723  0.48292  1.0000
  C   C177      1.0  0.23676  0.07314  0.34100  1.0000
  C   C178      1.0  0.22943  0.05807  0.42245  1.0000
  N   N93       1.0  0.21528  0.02980  0.42166  1.0000
  C   C179      1.0  0.20745  0.01456  0.34470  1.0000
  C   C180      1.0  0.19275  0.98518  0.34470  1.0000
  H   H57       1.0  0.23463  0.06814  0.48293  1.0000
  N   N94       1.0  0.18533  0.96993  0.42166  1.0000
  C   C181      1.0  0.17121  0.94166  0.42245  1.0000
  H   H58       1.0  0.16633  0.93159  0.48292  1.0000
  C   C182      1.0  0.93043  0.15966  0.34101  1.0000
  C   C183      1.0  0.94550  0.16741  0.42246  1.0000
  N   N95       1.0  0.97377  0.18153  0.42167  1.0000
  C   C184      1.0  0.98901  0.18894  0.34471  1.0000
  C   C185      1.0  0.01839  0.20363  0.34471  1.0000
  H   H59       1.0  0.93543  0.16254  0.48293  1.0000
  N   N96       1.0  0.03365  0.21146  0.42166  1.0000
  C   C186      1.0  0.06191  0.22560  0.42245  1.0000
  H   H60       1.0  0.07198  0.23080  0.48293  1.0000
  C   C187      1.0  0.23876  0.68052  0.34047  1.0000
  C   C188      1.0  0.23565  0.66593  0.42138  1.0000
  N   N97       1.0  0.23284  0.64019  0.41994  1.0000
  C   C189      1.0  0.23238  0.62691  0.34271  1.0000
  C   C190      1.0  0.23236  0.60148  0.34267  1.0000
  H   H61       1.0  0.23771  0.67532  0.48222  1.0000
  N   N98       1.0  0.23283  0.58864  0.41985  1.0000
  C   C191      1.0  0.23562  0.56570  0.42120  1.0000
  H   H62       1.0  0.23775  0.55841  0.48201  1.0000
  C   C192      1.0  0.32308  0.55432  0.34019  1.0000
  C   C193      1.0  0.33760  0.56574  0.42123  1.0000
  N   N99       1.0  0.36335  0.58867  0.41984  1.0000
  C   C194      1.0  0.37666  0.60150  0.34263  1.0000
  C   C195      1.0  0.40208  0.62691  0.34269  1.0000
  H   H63       1.0  0.32819  0.55841  0.48203  1.0000
  N   N100      1.0  0.41490  0.64020  0.41994  1.0000
  C   C196      1.0  0.43784  0.66593  0.42144  1.0000
  H   H64       1.0  0.44511  0.67535  0.48226  1.0000
  C   C197      1.0  0.44927  0.76480  0.34001  1.0000
  C   C198      1.0  0.43784  0.76791  0.42106  1.0000
  N   N101      1.0  0.41488  0.77067  0.41968  1.0000
  C   C199      1.0  0.40205  0.77116  0.34248  1.0000
  C   C200      1.0  0.37665  0.77117  0.34253  1.0000
  H   H65       1.0  0.44509  0.76570  0.48186  1.0000
  N   N102      1.0  0.36334  0.77065  0.41976  1.0000
  C   C201      1.0  0.33760  0.76784  0.42117  1.0000
  H   H66       1.0  0.32818  0.76575  0.48199  1.0000
  C   C202      1.0  0.76862  0.31923  0.34049  1.0000
  C   C203      1.0  0.77175  0.33382  0.42141  1.0000
  N   N103      1.0  0.77454  0.35955  0.41990  1.0000
  C   C204      1.0  0.77500  0.37282  0.34262  1.0000
  C   C205      1.0  0.77501  0.39824  0.34251  1.0000
  H   H67       1.0  0.76963  0.32440  0.48222  1.0000
  N   N104      1.0  0.77455  0.41109  0.41968  1.0000
  C   C206      1.0  0.77180  0.43406  0.42103  1.0000
  H   H68       1.0  0.76963  0.44135  0.48181  1.0000
  C   C207      1.0  0.68433  0.44543  0.34043  1.0000
  C   C208      1.0  0.66975  0.43405  0.42141  1.0000
  N   N105      1.0  0.64403  0.41108  0.41992  1.0000
  C   C209      1.0  0.63075  0.39824  0.34269  1.0000
  C   C210      1.0  0.60533  0.37283  0.34266  1.0000
  H   H69       1.0  0.67919  0.44131  0.48223  1.0000
  N   N106      1.0  0.59249  0.35953  0.41985  1.0000
  C   C211      1.0  0.56955  0.33380  0.42123  1.0000
  H   H70       1.0  0.56227  0.32437  0.48205  1.0000
  C   C212      1.0  0.55816  0.23495  0.34016  1.0000
  C   C213      1.0  0.56958  0.23184  0.42120  1.0000
  N   N107      1.0  0.59250  0.22902  0.41979  1.0000
  C   C214      1.0  0.60533  0.22853  0.34257  1.0000
  C   C215      1.0  0.63074  0.22852  0.34261  1.0000
  H   H71       1.0  0.56226  0.23393  0.48201  1.0000
  N   N108      1.0  0.64403  0.22900  0.41986  1.0000
  C   C216      1.0  0.66976  0.23178  0.42134  1.0000
  H   H72       1.0  0.67919  0.23394  0.48216  1.0000
